geometry optimzed in LAMMPS
_audit_creation_date              2020-12-01 
_audit_creation_method            'lammps2cif' 
_symmetry_space_group_name_H-M    'P1' 
_symmetry_Int_Tables_number       1 
_symmetry_cell_setting            triclinic 
loop_ 
_symmetry_equiv_pos_as_xyz 
  x,y,z 
_cell_length_a                    32.82526002 
_cell_length_b                    37.846011356137474 
_cell_length_c                    33.9990980944947 
_cell_angle_alpha                 90.02791404870736 
_cell_angle_beta                  89.54990039524492 
_cell_angle_gamma                 90.0833608521091 
loop_ 
_atom_site_label 
_atom_site_type_symbol 
_atom_site_fract_x 
_atom_site_fract_y 
_atom_site_fract_z 
_atom_site_charge 
N1          N  0.81485771  0.88096793  0.99029841    -0.03300
C2          C  0.81542327  0.87208540  0.02879887    -0.00700
C3          C  0.83319144  0.83985082  0.03494608    -0.23600
C4          C  0.84343163  0.82707676  0.99895552    -0.23800
C5          C  0.82665763  0.85004209  0.97183293    -0.00800
H6          H  0.83398971  0.82547653  0.06229567     0.13000
H7          H  0.85146988  0.79968272  0.99378957     0.13000
N8          N  0.78031745  0.12115017  0.00722314    -0.03300
C9          C  0.75852142  0.12135469  0.04177533    -0.00700
C10         C  0.72888415  0.09514722  0.03963362    -0.23600
C11         C  0.72248388  0.08995797  0.00028117    -0.23800
C12         C  0.75073828  0.11116262  0.98103931    -0.00800
H13         H  0.70624655  0.08927470  0.06203980     0.13000
H14         H  0.69429709  0.07991393  0.98828559     0.13000
N15         N  0.07682637  0.90889867  0.98584351    -0.03300
C16         C  0.11058345  0.92282297  0.00260912    -0.00700
C17         C  0.13642117  0.93616618  0.97391032    -0.23600
C18         C  0.12232260  0.92262124  0.93922191    -0.23800
C19         C  0.09024332  0.90019165  0.94936609    -0.00800
H20         H  0.16593870  0.94830649  0.97784030     0.13000
H21         H  0.14089821  0.92074436  0.91285468     0.13000
N22         N  0.79043936  0.00752233  0.87073238    -0.03300
C23         C  0.77845922  0.04050910  0.86079531    -0.00700
C24         C  0.73710242  0.04482910  0.86267470    -0.23600
C25         C  0.72164298  0.01314799  0.87324761    -0.23800
C26         C  0.75403708  0.98952918  0.87464862    -0.00800
H27         H  0.71997860  0.06779490  0.85369662     0.13000
H28         H  0.68951361  0.00678171  0.87173657     0.13000
N29         N  0.92891597  0.14244762  0.87634867    -0.03300
C30         C  0.89658759  0.14285436  0.85081230    -0.00700
C31         C  0.90174627  0.11475343  0.82472564    -0.23600
C32         C  0.94303751  0.11033075  0.82237018    -0.23800
C33         C  0.95877696  0.13482068  0.84894107    -0.00800
H34         H  0.88179886  0.10758404  0.80093859     0.13000
H35         H  0.95790713  0.09919479  0.79674357     0.13000
N36         N  0.93955289  0.92552367  0.84167179    -0.03300
C37         C  0.90475903  0.93465300  0.82317541    -0.00700
C38         C  0.91218670  0.95811006  0.79287149    -0.23600
C39         C  0.95339567  0.95824633  0.78762452    -0.23800
C40         C  0.96859609  0.93318185  0.81355768    -0.00800
H41         H  0.89036702  0.96702883  0.77132971     0.13000
H42         H  0.96758340  0.96705755  0.76054298     0.13000
N43         N  0.05900387  0.02541483  0.86994729    -0.03300
C44         C  0.06240411  0.05722335  0.85322664    -0.00700
C45         C  0.06095127  0.05543240  0.81282816    -0.23600
C46         C  0.05780642  0.02041768  0.80402386    -0.23800
C47         C  0.05807228  0.00236665  0.83955699    -0.00800
H48         H  0.06785231  0.07647169  0.79225810     0.13000
H49         H  0.06247870  0.00935738  0.77502370     0.13000
N50         N  0.94657238  0.87044866  0.09799176    -0.03300
C51         C  0.91648194  0.84609328  0.09016644    -0.00700
C52         C  0.92639032  0.82872105  0.05526728    -0.23600
C53         C  0.96707715  0.83369494  0.04974256    -0.23800
C54         C  0.97965039  0.85217104  0.08284989    -0.00800
H55         H  0.91012350  0.80768775  0.04089204     0.13000
H56         H  0.98506432  0.81599708  0.03168234     0.13000
N57         N  0.78378643  0.99662400  0.12535925    -0.03300
C58         C  0.75609647  0.02142514  0.11393827    -0.00700
C59         C  0.72754993  0.00685209  0.08906332    -0.23600
C60         C  0.73240222  0.97122232  0.09270250    -0.23800
C61         C  0.75936166  0.96714696  0.12376731    -0.00800
H62         H  0.70131530  0.01985088  0.07655830     0.13000
H63         H  0.71104097  0.95207595  0.08151178     0.13000
N64         N  0.92343723  0.11696850  0.15047785    -0.03300
C65         C  0.88470125  0.12639243  0.16252332    -0.00700
C66         C  0.87331661  0.15521013  0.13975690    -0.23600
C67         C  0.90885522  0.17085250  0.12774482    -0.23800
C68         C  0.94004519  0.14942622  0.14151114    -0.00800
H69         H  0.84606537  0.17072951  0.14374668     0.13000
H70         H  0.91055706  0.19871621  0.12095638     0.13000
Zr71       Zr  0.23567151  0.28116991  0.30788303     2.17500
O72         O  0.27952526  0.27249269  0.36458036    -0.51100
O73         O  0.24802231  0.34344623  0.31819957    -0.74300
O74         O  0.30611045  0.28150405  0.28855988    -0.81100
O75         O  0.14315576  0.29427665  0.36684513    -0.82900
O76         O  0.30219337  0.30374791  0.22836709    -0.78500
O77         O  0.20377257  0.26940343  0.36988714    -0.90100
O78         O  0.21827984  0.37395455  0.26880344    -0.76100
O79         O  0.23603127  0.30697865  0.24419877    -0.85600
O80         O  0.17076259  0.30892124  0.29791615    -0.85300
O81         O  0.25219183  0.23354785  0.26388790    -0.72000
O82         O  0.18632765  0.23470709  0.31577777    -0.84200
Zr83       Zr  0.13754127  0.24351148  0.19704937     2.26400
Zr84       Zr  0.25270995  0.26036736  0.19953360     2.06300
Zr85       Zr  0.12057515  0.26225232  0.30638961     2.10000
Zr86       Zr  0.17260128  0.33466079  0.23460302     1.78800
O87         O  0.10086526  0.22261219  0.35965053    -0.93000
O88         O  0.20420437  0.36787135  0.18103970    -0.40800
O89         O  0.12162602  0.28995628  0.24241348    -0.77400
O90         O  0.18798807  0.28949161  0.18817098    -0.96100
O91         O  0.20166973  0.21551738  0.20654707    -0.89400
O92         O  0.13638861  0.21574594  0.26043821    -0.92200
C93         C  0.24147008  0.37192560  0.29884876     1.01500
C94         C  0.17907473  0.29271369  0.38197949     1.14400
C95         C  0.31688409  0.30473586  0.26363410     1.05200
O96         O  0.28054191  0.28674307  0.13983797    -0.94400
O97         O  0.22880793  0.22103843  0.14467355    -0.90100
O98         O  0.17134866  0.24965724  0.13507264    -0.83300
C99         C  0.19509161  0.22480880  0.12578013     1.11900
O100        O  0.25194179  0.16334049  0.31205104    -0.96400
Zr101      Zr  0.20076570  0.18885043  0.26913579     1.88900
O102        O  0.12206640  0.18191753  0.18737719    -0.73000
O103        O  0.31402766  0.22423855  0.20071563    -0.52300
O104        O  0.24729952  0.14982632  0.23382386    -0.97000
O105        O  0.17136124  0.15088704  0.31977194    -0.54200
O106        O  0.15861695  0.14941103  0.23055753    -0.73500
C107        C  0.13264926  0.15250040  0.20270583     0.98800
O108        O  0.08916280  0.24683629  0.14322673    -0.62300
O109        O  0.06094841  0.29827594  0.32094354    -0.57200
O110        O  0.07008747  0.25940709  0.21721011    -0.93800
O111        O  0.06034071  0.23271586  0.27404576    -0.92300
O112        O  0.13159495  0.38125841  0.26437912    -0.92600
O113        O  0.11870881  0.35526025  0.19134946    -0.91400
C114        C  0.05064942  0.23673723  0.23752414     1.17700
H115        H  0.16681755  0.32869122  0.31542972     0.33600
H116        H  0.18809500  0.30140743  0.16303300     0.44500
H117        H  0.11643175  0.19709315  0.26230770     0.38000
H118        H  0.27829647  0.22325122  0.26999141     0.34500
H119        H  0.19590312  0.39267368  0.18569398     0.26200
H120        H  0.30414524  0.19977995  0.19674240     0.32200
H121        H  0.24171416  0.15391786  0.20561428     0.38100
H122        H  0.11139114  0.36859873  0.28095317     0.32600
H123        H  0.04861941  0.28717625  0.34457430     0.31400
H124        H  0.11991879  0.22797502  0.38128302     0.33100
H125        H  0.16760500  0.12770994  0.30676131     0.32100
H126        H  0.09395552  0.34215982  0.19961540     0.36100
H127        H  0.09854005  0.26596233  0.12548787     0.28800
H128        H  0.29441828  0.29502680  0.36785659     0.33000
H129        H  0.25386350  0.18011147  0.33432457     0.35900
H130        H  0.07212779  0.32099679  0.33049685     0.28500
H131        H  0.09237184  0.22466181  0.12816224     0.41400
H132        H  0.28228790  0.31229570  0.14586724     0.31400
H133        H  0.23371485  0.36748866  0.18686125     0.39000
H134        H  0.14337955  0.15998781  0.32380540     0.30900
H135        H  0.32866690  0.23015109  0.17601747     0.31000
H136        H  0.30036119  0.25497608  0.35655169     0.31200
N137        N  0.06662578  0.99864507  0.12790029    -0.03300
C138        C  0.08930298  0.02789688  0.12040696    -0.00700
C139        C  0.12116397  0.02051335  0.09504896    -0.23600
C140        C  0.12249546  0.98465993  0.09284888    -0.23800
C141        C  0.09557959  0.97287037  0.12182688    -0.00800
H142        H  0.14465798  0.03817879  0.08461891     0.13000
H143        H  0.14681285  0.97034425  0.07858463     0.13000
Zr144      Zr  0.24940853  0.71509981  0.25048572     2.17500
O145        O  0.31230839  0.68652067  0.22902134    -0.51100
O146        O  0.25105322  0.68062191  0.31027751    -0.74300
O147        O  0.30643090  0.74837656  0.27408766    -0.81100
O148        O  0.18072962  0.64271909  0.21901576    -0.82900
O149        O  0.27969781  0.78685703  0.31647354    -0.78500
O150        O  0.24498731  0.66032410  0.21499397    -0.90100
O151        O  0.19203664  0.69070284  0.34359889    -0.76100
O152        O  0.22142594  0.75430172  0.29857292    -0.85600
O153        O  0.18017813  0.69803160  0.26255432    -0.85300
O154        O  0.25741934  0.77392875  0.22438533    -0.72000
O155        O  0.21745445  0.71774039  0.18742557    -0.84200
Zr156      Zr  0.12672814  0.79832471  0.22256187     2.26400
Zr157      Zr  0.22767658  0.81324461  0.27304694     2.06300
Zr158      Zr  0.14794357  0.69981977  0.19923230     2.10000
Zr159      Zr  0.15352933  0.73654390  0.31051302     1.78800
O160        O  0.16112890  0.66978392  0.13708194    -0.93000
O161        O  0.17040818  0.75909251  0.37550557    -0.40800
O162        O  0.11966117  0.73948557  0.24851280    -0.77400
O163        O  0.15819778  0.79587840  0.28612570    -0.96100
O164        O  0.19538483  0.81543299  0.21069982    -0.89400
O165        O  0.15503332  0.75937095  0.17353953    -0.92200
C166        C  0.22637537  0.67501176  0.33905660     1.01500
C167        C  0.21891750  0.63761686  0.22638476     1.14400
C168        C  0.30538887  0.76216998  0.30810313     1.05200
O169        O  0.21399098  0.84831166  0.33167065    -0.94400
O170        O  0.19566928  0.86792392  0.24556914    -0.90100
O171        O  0.13013301  0.85504829  0.25448305    -0.83300
C172        C  0.15755803  0.87636808  0.24275655     1.11900
O173        O  0.28278644  0.75076576  0.13107789    -0.96400
Zr174      Zr  0.22334185  0.77685566  0.16308643     1.88900
O175        O  0.12591138  0.83107851  0.16158872    -0.73000
O176        O  0.28844976  0.84925893  0.26292409    -0.52300
O177        O  0.27707909  0.82038831  0.15287019    -0.97000
O178        O  0.20565532  0.76039269  0.09599752    -0.54200
O179        O  0.18904870  0.82663088  0.13472445    -0.73500
C180        C  0.15336923  0.84018414  0.13659087     0.98800
O181        O  0.06017198  0.82614502  0.22985044    -0.62300
O182        O  0.08955389  0.66171259  0.21208390    -0.57200
O183        O  0.07188248  0.75785180  0.21228725    -0.93800
O184        O  0.08840789  0.72318795  0.16294673    -0.92300
O185        O  0.10253612  0.69149171  0.32520665    -0.92600
O186        O  0.09149726  0.75885829  0.34119024    -0.91400
C187        C  0.06667671  0.74853042  0.17692035     1.17700
H188        H  0.17766337  0.67522454  0.27485632     0.33600
H189        H  0.14536658  0.81154985  0.30490334     0.44500
H190        H  0.14188596  0.76239796  0.14849628     0.38000
H191        H  0.28549730  0.78009284  0.21914301     0.34500
H192        H  0.16205402  0.74008417  0.39389431     0.26200
H193        H  0.29967383  0.84156759  0.23721591     0.32200
H194        H  0.26652677  0.84220418  0.16538447     0.38100
H195        H  0.11711003  0.66868659  0.32301392     0.32600
H196        H  0.09449444  0.64054947  0.19560073     0.31400
H197        H  0.14572370  0.68350305  0.11738698     0.33100
H198        H  0.21391566  0.73534914  0.09331661     0.32100
H199        H  0.07441665  0.76644129  0.31885611     0.36100
H200        H  0.05737709  0.83258605  0.25797043     0.28800
H201        H  0.32472191  0.67695414  0.25316028     0.33000
H202        H  0.29720124  0.73829324  0.15243694     0.35900
H203        H  0.09340933  0.65340756  0.23941432     0.28500
H204        H  0.06201833  0.84884834  0.21550048     0.41400
H205        H  0.20430481  0.83095357  0.35142876     0.31400
H206        H  0.20055970  0.75899740  0.37633979     0.39000
H207        H  0.22500970  0.77364310  0.07904974     0.30900
H208        H  0.27803592  0.87337925  0.25801217     0.31000
H209        H  0.33074470  0.70571308  0.22019730     0.31200
Zr210      Zr  0.73670732  0.23079150  0.22831246     2.17500
O211        O  0.79797513  0.22934506  0.18722606    -0.51100
O212        O  0.73275702  0.17020798  0.20583916    -0.74300
O213        O  0.79760606  0.22007471  0.26425148    -0.81100
O214        O  0.66750074  0.24654811  0.14744217    -0.82900
O215        O  0.77597103  0.18801301  0.31470660    -0.78500
O216        O  0.73343457  0.25186742  0.16178934    -0.90100
O217        O  0.67710744  0.14142328  0.22885589    -0.76100
O218        O  0.71280500  0.19665306  0.28269631    -0.85600
O219        O  0.66687783  0.21708205  0.21655079    -0.85300
O220        O  0.74976933  0.26781217  0.28480553    -0.72000
O221        O  0.70498784  0.28723064  0.21929820    -0.84200
Zr222      Zr  0.62111630  0.27584114  0.31909525     2.26400
Zr223      Zr  0.72486276  0.23284081  0.33941515     2.06300
Zr224      Zr  0.63460476  0.27339129  0.20723872     2.10000
Zr225      Zr  0.64304563  0.18405663  0.27113322     1.78800
O226        O  0.63958460  0.32039700  0.15860753    -0.93000
O227        O  0.65485941  0.13053579  0.30928398    -0.40800
O228        O  0.60917022  0.23955512  0.26252492    -0.77400
O229        O  0.65368525  0.21915905  0.32868129    -0.96100
O230        O  0.69114596  0.28856080  0.33039843    -0.89400
O231        O  0.64575397  0.30985501  0.26453204    -0.92200
C232        C  0.70984688  0.14284738  0.20804008     1.01500
C233        C  0.70552421  0.24072605  0.13914303     1.14400
C234        C  0.80026931  0.19246204  0.28497661     1.05200
O235        O  0.71819088  0.19106697  0.39355040    -0.94400
O236        O  0.69832279  0.27131243  0.39391674    -0.90100
O237        O  0.63303596  0.25924043  0.38611820    -0.83300
C238        C  0.66063182  0.27617692  0.40386645     1.11900
O239        O  0.77585877  0.33914184  0.24012972    -0.96400
Zr240      Zr  0.71479142  0.32283240  0.27698801     1.88900
O241        O  0.62078983  0.33704566  0.34011315    -0.73000
O242        O  0.78879914  0.25084021  0.36925448    -0.52300
O243        O  0.76566706  0.34666069  0.32152856    -0.97000
O244        O  0.70293125  0.37388728  0.23492287    -0.54200
O245        O  0.67830469  0.36469853  0.31934084    -0.73500
C246        C  0.64398250  0.36431465  0.33784212     0.98800
O247        O  0.55698027  0.27204526  0.35552464    -0.62300
O248        O  0.57500413  0.24997172  0.17390999    -0.57200
O249        O  0.55897451  0.28391787  0.28301836    -0.93800
O250        O  0.57673483  0.31195192  0.22787104    -0.92300
O251        O  0.59115132  0.16369247  0.22562124    -0.92600
O252        O  0.58248584  0.16848798  0.30932740    -0.91400
C253        C  0.55477869  0.30982985  0.25951492     1.17700
H254        H  0.66338845  0.20196172  0.19398483     0.33600
H255        H  0.64257773  0.20615983  0.35074726     0.44500
H256        H  0.63241313  0.33249950  0.26283319     0.38000
H257        H  0.77804335  0.27401011  0.28851996     0.34500
H258        H  0.68469496  0.12683126  0.30795967     0.26200
H259        H  0.78699712  0.27691280  0.37087332     0.32200
H260        H  0.75753485  0.33769446  0.34779575     0.38100
H261        H  0.57171910  0.18357985  0.22375401     0.32600
H262        H  0.58354491  0.22630799  0.16457849     0.31400
H263        H  0.66862468  0.32060497  0.15049626     0.33100
H264        H  0.68286206  0.38874308  0.24913872     0.32100
H265        H  0.56409052  0.18903067  0.30652010     0.36100
H266        H  0.55939901  0.25226685  0.37438879     0.28800
H267        H  0.81033985  0.20588058  0.19172987     0.33000
H268        H  0.78075649  0.31902613  0.22206903     0.35900
H269        H  0.55509208  0.24511202  0.19526346     0.28500
H270        H  0.55580466  0.29374161  0.37174260     0.41400
H271        H  0.71141826  0.16833673  0.38072128     0.31400
H272        H  0.64955622  0.13736900  0.33696562     0.39000
H273        H  0.68770001  0.36432662  0.21226132     0.30900
H274        H  0.78652252  0.24280790  0.39689526     0.31000
H275        H  0.81722896  0.24651016  0.19887422     0.31200
Zr276      Zr  0.62921642  0.72041623  0.26417403     2.17500
O277        O  0.57016517  0.69177688  0.23516679    -0.51100
O278        O  0.61875320  0.68747919  0.32366014    -0.74300
O279        O  0.65028661  0.66421161  0.23905069    -0.81100
O280        O  0.57206946  0.79310714  0.31278033    -0.82900
O281        O  0.70938081  0.65523188  0.26732125    -0.78500
O282        O  0.56233594  0.74482955  0.27560887    -0.90100
O283        O  0.66899665  0.70066006  0.36675328    -0.76100
O284        O  0.69453807  0.70921793  0.29133397    -0.85600
O285        O  0.64196024  0.76274006  0.31467421    -0.85300
O286        O  0.67632686  0.72049417  0.20939565    -0.72000
O287        O  0.62194865  0.77603219  0.23190480    -0.84200
Zr288      Zr  0.74611802  0.81124732  0.25386824     2.26400
Zr289      Zr  0.74259751  0.71051282  0.23842375     2.06300
Zr290      Zr  0.63458454  0.81918233  0.28287480     2.10000
Zr291      Zr  0.70710084  0.75136016  0.34040505     1.78800
O292        O  0.57505530  0.84967089  0.25758083    -0.93000
O293        O  0.76048823  0.71329581  0.36593584    -0.40800
O294        O  0.70104801  0.80819051  0.30954459    -0.77400
O295        O  0.75521529  0.75552791  0.28721389    -0.96100
O296        O  0.73516111  0.76639517  0.20578817    -0.89400
O297        O  0.67981145  0.82019334  0.22695185    -0.92200
C298        C  0.63719646  0.68309102  0.35626619     1.01500
C299        C  0.55275463  0.76414836  0.30501035     1.14400
C300        C  0.67203988  0.64542823  0.26141170     1.05200
O301        O  0.80167756  0.68307575  0.26865848    -0.94400
O302        O  0.79972292  0.74151643  0.20239432    -0.90100
O303        O  0.81280812  0.78813011  0.24078695    -0.83300
C304        C  0.82043993  0.76991087  0.21021260     1.11900
O305        O  0.62248365  0.73940826  0.14250610    -0.96400
Zr306      Zr  0.67005575  0.77658118  0.17850543     1.88900
O307        O  0.75626177  0.84273254  0.19254106    -0.73000
O308        O  0.75421105  0.67038295  0.18345117    -0.52300
O309        O  0.70487347  0.75524117  0.11962887    -0.97000
O310        O  0.61740657  0.81125955  0.14643850    -0.54200
O311        O  0.70799810  0.82489990  0.14938110    -0.73500
C312        C  0.73826378  0.84438357  0.15925178     0.98800
O313        O  0.79865659  0.84568668  0.28676739    -0.62300
O314        O  0.63204143  0.85529329  0.34214461    -0.57200
O315        O  0.72955101  0.86936743  0.27798182    -0.93800
O316        O  0.66401774  0.87767990  0.26391829    -0.92300
O317        O  0.67397639  0.77192610  0.40047017    -0.92600
O318        O  0.75298016  0.78806445  0.37877926    -0.91400
C319        C  0.70180327  0.88742784  0.26156242     1.17700
H320        H  0.62410465  0.75925535  0.33700818     0.33600
H321        H  0.78248942  0.75342179  0.29740501     0.44500
H322        H  0.67725993  0.84175935  0.21222790     0.38000
H323        H  0.67069913  0.70286296  0.18959909     0.34500
H324        H  0.74851048  0.70247653  0.38988898     0.26200
H325        H  0.77582344  0.65421610  0.19264880     0.32200
H326        H  0.72894441  0.74234658  0.12949083     0.38100
H327        H  0.68262229  0.75498339  0.42094531     0.32600
H328        H  0.61972127  0.87786561  0.33361653     0.31400
H329        H  0.58317424  0.85713629  0.23073424     0.33100
H330        H  0.62880856  0.81675181  0.12008536     0.32100
H331        H  0.77528399  0.79428120  0.36025516     0.36100
H332        H  0.81434724  0.82853944  0.30255631     0.28800
H333        H  0.56351165  0.67220643  0.25334810     0.33000
H334        H  0.59720156  0.73966854  0.15859061     0.35900
H335        H  0.61083184  0.84409116  0.35884765     0.28500
H336        H  0.81759204  0.85359255  0.26575200     0.41400
H337        H  0.82327752  0.70133872  0.26756252     0.31400
H338        H  0.76226120  0.69361693  0.34679585     0.39000
H339        H  0.61735669  0.83417460  0.16049394     0.30900
H340        H  0.72939707  0.65553261  0.18237622     0.31000
H341        H  0.58011477  0.68021816  0.21080948     0.31200
N342        N  0.07023090  0.13250237  0.01185831    -0.03300
C343        C  0.10016570  0.12137325  0.03749082    -0.00700
C344        C  0.12351673  0.09588371  0.01816490    -0.23600
C345        C  0.11712963  0.10163035  0.97889425    -0.23800
C346        C  0.09408920  0.13246890  0.97803380    -0.00800
H347        H  0.15019905  0.08244968  0.02891831     0.13000
H348        H  0.13732657  0.09196741  0.95603421     0.13000
Zr349      Zr  0.24857155  0.28454057  0.71699448     2.17500
O350        O  0.29564209  0.25812285  0.66946711    -0.51100
O351        O  0.27552492  0.34173036  0.70314145    -0.74300
O352        O  0.22614844  0.28731695  0.64984642    -0.81100
O353        O  0.31836277  0.29864461  0.80207783    -0.82900
O354        O  0.16417757  0.31153466  0.65626048    -0.78500
O355        O  0.31127828  0.26838617  0.74748817    -0.90100
O356        O  0.23840303  0.38090152  0.73951193    -0.76100
O357        O  0.18760809  0.31854861  0.71875583    -0.85600
O358        O  0.24668157  0.31750628  0.77772662    -0.85300
O359        O  0.19477659  0.24273312  0.70869355    -0.72000
O360        O  0.25459216  0.24212678  0.76878517    -0.84200
Zr361      Zr  0.13792032  0.26684134  0.82386218     2.26400
Zr362      Zr  0.13330726  0.27722313  0.71204461     2.06300
Zr363      Zr  0.25303125  0.27513241  0.83016409     2.10000
Zr364      Zr  0.18622280  0.35095667  0.77812807     1.78800
O365        O  0.30549734  0.23281748  0.84781643    -0.93000
O366        O  0.14526823  0.39038489  0.73778436    -0.40800
O367        O  0.19104159  0.30982555  0.83164503    -0.77400
O368        O  0.13098075  0.31022856  0.77281884    -0.96100
O369        O  0.13940091  0.23458099  0.76359789    -0.89400
O370        O  0.19963233  0.23318972  0.82084700    -0.92200
C371        C  0.26717840  0.37278620  0.71530761     1.01500
C372        C  0.32927791  0.29273982  0.76615212     1.14400
C373        C  0.19916247  0.30902634  0.63848075     1.05200
O374        O  0.07436574  0.31407920  0.69827505    -0.94400
O375        O  0.07601525  0.24194657  0.74036623    -0.90100
O376        O  0.06953703  0.26768407  0.79913045    -0.83300
C377        C  0.05819098  0.24463696  0.77428583     1.11900
O378        O  0.23945201  0.17165026  0.71008571    -0.96400
Zr379      Zr  0.19992440  0.20117806  0.76129885     1.88900
O380        O  0.12661695  0.20856049  0.84870694    -0.73000
O381        O  0.11656639  0.24243521  0.65408795    -0.52300
O382        O  0.15415380  0.16113746  0.72706117    -0.97000
O383        O  0.24968949  0.16026809  0.78813855    -0.54200
O384        O  0.16256481  0.16946938  0.81150473    -0.73500
C385        C  0.13884065  0.17747600  0.84033459     0.98800
O386        O  0.08132268  0.28568371  0.86574961    -0.62300
O387        O  0.27315324  0.31406824  0.88365301    -0.57200
O388        O  0.16131966  0.27503332  0.89010767    -0.93800
O389        O  0.22174166  0.24876364  0.89165797    -0.92300
O390        O  0.21702877  0.39598694  0.81954007    -0.92600
O391        O  0.13798724  0.37973970  0.82246395    -0.91400
C392        C  0.18465745  0.25178184  0.90476341     1.17700
H393        H  0.26802944  0.33485966  0.77969780     0.33600
H394        H  0.10551614  0.32284134  0.77528717     0.44500
H395        H  0.20231510  0.21529919  0.84068256     0.38000
H396        H  0.19704671  0.23079915  0.68364953     0.34500
H397        H  0.16463520  0.40115590  0.71879434     0.26200
H398        H  0.11563742  0.21774822  0.66366351     0.32200
H399        H  0.15412694  0.16966296  0.69954049     0.38100
H400        H  0.24411899  0.38636887  0.82627492     0.32600
H401        H  0.27652393  0.33750373  0.87111842     0.31400
H402        H  0.31800338  0.24286007  0.87175808     0.33100
H403        H  0.23581601  0.13701740  0.78802559     0.32100
H404        H  0.13197744  0.36184200  0.84294939     0.36100
H405        H  0.07536197  0.26519469  0.88295142     0.28800
H406        H  0.30104955  0.27634683  0.64918026     0.33000
H407        H  0.26423837  0.18636544  0.70700143     0.35900
H408        H  0.24837736  0.31651173  0.90022890     0.28500
H409        H  0.09228059  0.30411762  0.88343096     0.41400
H410        H  0.07054324  0.31212336  0.66950442     0.31400
H411        H  0.12825262  0.37447632  0.72161599     0.39000
H412        H  0.25154552  0.16663758  0.81631869     0.30900
H413        H  0.08781295  0.24830526  0.64849701     0.31000
H414        H  0.28007925  0.23935266  0.65589519     0.31200
Zr415      Zr  0.10102906  0.77925060  0.79337148     2.17500
O416        O  0.03192616  0.78304390  0.81977677    -0.51100
O417        O  0.10089884  0.84025152  0.81660380    -0.74300
O418        O  0.09611894  0.75528868  0.85907155    -0.81100
O419        O  0.07934611  0.82735421  0.70091682    -0.82900
O420        O  0.16000149  0.75360459  0.88000828    -0.78500
O421        O  0.05133158  0.79055481  0.74358763    -0.90100
O422        O  0.16524263  0.86188489  0.81200823    -0.76100
O423        O  0.16803319  0.78264721  0.81935348    -0.85600
O424        O  0.14037812  0.81587976  0.74981447    -0.85300
O425        O  0.12420696  0.71865564  0.79729341    -0.72000
O426        O  0.09832718  0.75043066  0.73015496    -0.84200
Zr427      Zr  0.23057535  0.73464104  0.71873483     2.26400
Zr428      Zr  0.19189200  0.72271145  0.82418963     2.06300
Zr429      Zr  0.13736350  0.78804264  0.68623073     2.10000
Zr430      Zr  0.20629647  0.81973836  0.77697557     1.78800
O431        O  0.08520058  0.77139991  0.63916913    -0.93000
O432        O  0.24515417  0.83252452  0.83609109    -0.40800
O433        O  0.20528615  0.79384982  0.71287513    -0.77400
O434        O  0.23237633  0.76171845  0.78314873    -0.96100
O435        O  0.19149211  0.69639237  0.76007416    -0.89400
O436        O  0.16383016  0.72906588  0.69121122    -0.92200
C437        C  0.12739992  0.86502851  0.82033650     1.01500
C438        C  0.05242122  0.82086167  0.72756296     1.14400
C439        C  0.12287391  0.76387563  0.88419382     1.05200
O440        O  0.24814862  0.72682386  0.87032804    -0.94400
O441        O  0.24186256  0.67700140  0.80393737    -0.90100
O442        O  0.27645042  0.71517469  0.76826345    -0.83300
C443        C  0.27169607  0.68399249  0.78056286     1.11900
O444        O  0.06144138  0.66603014  0.75488203    -0.96400
Zr445      Zr  0.12585791  0.69164056  0.73305629     1.88900
O446        O  0.22898864  0.68143727  0.67978505    -0.73000
O447        O  0.16476706  0.67440134  0.86388188    -0.52300
O448        O  0.13342736  0.63352567  0.76283647    -0.97000
O449        O  0.07801531  0.68444641  0.67922022    -0.54200
O450        O  0.16606777  0.65672193  0.68586817    -0.73500
C451        C  0.20230321  0.65807198  0.67099627     0.98800
O452        O  0.30128215  0.73075040  0.69709269    -0.62300
O453        O  0.15161188  0.84123544  0.64829244    -0.57200
O454        O  0.23666288  0.77324342  0.66326835    -0.93800
O455        O  0.17973671  0.76890588  0.62972509    -0.92300
O456        O  0.21357746  0.87644916  0.74398871    -0.92600
O457        O  0.27667377  0.83189974  0.75820580    -0.91400
C458        C  0.21816200  0.76325139  0.63255874     1.17700
H459        H  0.13005336  0.83964993  0.74792314     0.33600
H460        H  0.25872446  0.76617032  0.79469289     0.44500
H461        H  0.16392890  0.71834235  0.66552054     0.38000
H462        H  0.10680990  0.70470002  0.81428907     0.34500
H463        H  0.24248516  0.85835544  0.83994596     0.26200
H464        H  0.18425521  0.65477259  0.85980381     0.32200
H465        H  0.14172394  0.63840787  0.79024450     0.38100
H466        H  0.19113953  0.87701379  0.72473488     0.32600
H467        H  0.14819344  0.86081961  0.66733637     0.31400
H468        H  0.06193203  0.76323580  0.65551073     0.33100
H469        H  0.07446076  0.65857474  0.67651607     0.32100
H470        H  0.28443635  0.81207577  0.74067653     0.36100
H471        H  0.30118598  0.71621651  0.67292326     0.28800
H472        H  0.03277426  0.80160950  0.84024889     0.33000
H473        H  0.04678722  0.68580483  0.76775042     0.35900
H474        H  0.18128303  0.84047299  0.64291945     0.28500
H475        H  0.30914106  0.75484735  0.68871022     0.41400
H476        H  0.27265991  0.73123673  0.85390132     0.31400
H477        H  0.22901870  0.82197767  0.85783681     0.39000
H478        H  0.09354111  0.69143680  0.65537706     0.30900
H479        H  0.16912847  0.68189425  0.89143604     0.31000
H480        H  0.02614997  0.76071220  0.83390087     0.31200
Zr481      Zr  0.73891448  0.24803715  0.79997203     2.17500
O482        O  0.77379301  0.26138230  0.86130076    -0.51100
O483        O  0.77382572  0.19276117  0.80549702    -0.74300
O484        O  0.70092493  0.23274218  0.85765978    -0.81100
O485        O  0.82650079  0.27207771  0.73639266    -0.82900
O486        O  0.65417820  0.19575457  0.83392782    -0.78500
O487        O  0.80027407  0.28197230  0.79506624    -0.90100
O488        O  0.75498449  0.15779066  0.75457876    -0.76100
O489        O  0.69299462  0.20525426  0.77385231    -0.85600
O490        O  0.76101491  0.23395001  0.73437842    -0.85300
O491        O  0.67233391  0.27413273  0.80547397    -0.72000
O492        O  0.74179858  0.30337924  0.76603498    -0.84200
Zr493      Zr  0.65082750  0.27491251  0.67794158     2.26400
Zr494      Zr  0.62663381  0.23136901  0.77704038     2.06300
Zr495      Zr  0.76401022  0.28954933  0.69951581     2.10000
Zr496      Zr  0.71475662  0.19242249  0.70880752     1.78800
O497        O  0.80469240  0.34320913  0.70402110    -0.93000
O498        O  0.67256629  0.13962738  0.71392079    -0.40800
O499        O  0.71644482  0.24708548  0.67311705    -0.77400
O500        O  0.64828331  0.21832943  0.71053094    -0.96100
O501        O  0.62855638  0.28722788  0.74358672    -0.89400
O502        O  0.69804145  0.31613935  0.70584864    -0.92200
C503        C  0.77348011  0.16330033  0.78721218     1.01500
C504        C  0.82814855  0.26831270  0.77407589     1.14400
C505        C  0.68154811  0.20380668  0.85984319     1.05200
O506        O  0.58814811  0.17765320  0.76378076    -0.94400
O507        O  0.56627418  0.25961057  0.74415384    -0.90100
O508        O  0.58267879  0.25162180  0.68119227    -0.83300
C509        C  0.55800979  0.26304410  0.70706211     1.11900
O510        O  0.69325068  0.34718593  0.83658723    -0.96400
Zr511      Zr  0.67509566  0.32839174  0.77044889     1.88900
O512        O  0.62666371  0.33496075  0.66869450    -0.73000
O513        O  0.57960951  0.24037326  0.83182192    -0.52300
O514        O  0.61421580  0.34888200  0.80490898    -0.97000
O515        O  0.71252621  0.38404347  0.76839448    -0.54200
O516        O  0.63937848  0.36525347  0.72498088    -0.73500
C517        C  0.62688087  0.36326664  0.68946981     0.98800
O518        O  0.62033051  0.26107626  0.61460017    -0.62300
O519        O  0.80675586  0.26828331  0.64566198    -0.57200
O520        O  0.69358359  0.28525110  0.62173447    -0.93800
O521        O  0.73957255  0.32418015  0.64080272    -0.92300
O522        O  0.77260300  0.16632326  0.67422084    -0.92600
O523        O  0.70263817  0.17275004  0.64171134    -0.91400
C524        C  0.70938046  0.31575613  0.61838285     1.17700
H525        H  0.78664125  0.22157635  0.73420314     0.33600
H526        H  0.62933265  0.20250614  0.69789172     0.44500
H527        H  0.69889981  0.33868598  0.69283002     0.38000
H528        H  0.66384082  0.27964909  0.83203585     0.34500
H529        H  0.69227986  0.11985950  0.71457162     0.26200
H530        H  0.56603966  0.26310908  0.82602307     0.32200
H531        H  0.59325260  0.33073731  0.79943250     0.38100
H532        H  0.79383299  0.18492553  0.67410081     0.32600
H533        H  0.82845746  0.25444884  0.65856495     0.31400
H534        H  0.78830112  0.36152042  0.69069261     0.33100
H535        H  0.71855917  0.38804698  0.74016596     0.32100
H536        H  0.67854264  0.18635982  0.63315603     0.36100
H537        H  0.61043407  0.23636954  0.61589145     0.28800
H538        H  0.77540436  0.23887120  0.87602119     0.33000
H539        H  0.71634113  0.33177427  0.84388182     0.35900
H540        H  0.78988849  0.25033195  0.63219859     0.28500
H541        H  0.59574303  0.27602629  0.61244704     0.41400
H542        H  0.56611461  0.18514812  0.74592069     0.31400
H543        H  0.66101576  0.14048477  0.74088871     0.39000
H544        H  0.73936142  0.37862789  0.78002371     0.30900
H545        H  0.55814068  0.22231832  0.82799641     0.31000
H546        H  0.75522098  0.27666531  0.87682087     0.31200
Zr547      Zr  0.68856975  0.80055331  0.82456107     2.17500
O548        O  0.68260597  0.84175557  0.87938567    -0.51100
O549        O  0.75540445  0.82656553  0.82858587    -0.74300
O550        O  0.68715354  0.76846763  0.88493992    -0.81100
O551        O  0.68549151  0.86885903  0.74969938    -0.82900
O552        O  0.72920529  0.72470989  0.87325771    -0.78500
O553        O  0.65646183  0.85447642  0.80611973    -0.90100
O554        O  0.79710050  0.79883976  0.78472875    -0.76100
O555        O  0.72939320  0.74930815  0.81330424    -0.85600
O556        O  0.71873087  0.80546406  0.76033804    -0.85300
O557        O  0.64240103  0.75123551  0.83317901    -0.72000
O558        O  0.63300529  0.80840879  0.78018548    -0.84200
Zr559      Zr  0.65881982  0.71156296  0.71291510     2.26400
Zr560      Zr  0.68448788  0.69958055  0.82098737     2.06300
Zr561      Zr  0.66366896  0.81311654  0.71564549     2.10000
Zr562      Zr  0.75890903  0.75426422  0.75015902     1.78800
O563        O  0.61231552  0.85671105  0.69847619    -0.93000
O564        O  0.81199039  0.72123161  0.78375334    -0.40800
O565        O  0.70449482  0.76043896  0.70426984    -0.77400
O566        O  0.71542774  0.70378392  0.75660310    -0.96100
O567        O  0.62911927  0.70749906  0.77674120    -0.89400
O568        O  0.61784770  0.76327676  0.72329320    -0.92200
C569        C  0.78912794  0.82315718  0.80987122     1.01500
C570        C  0.67850726  0.87567080  0.78632482     1.14400
C571        C  0.72012611  0.75300874  0.89241132     1.05200
O572        O  0.72960094  0.64922844  0.82967817    -0.94400
O573        O  0.64681567  0.64955053  0.78942916    -0.90100
O574        O  0.67397259  0.65181175  0.72950219    -0.83300
C575        C  0.64990051  0.63735440  0.75396462     1.11900
O576        O  0.55847714  0.79629253  0.83715675    -0.96400
Zr577      Zr  0.58896759  0.75864198  0.78686104     1.88900
O578        O  0.58949462  0.69452793  0.70009788    -0.73000
O579        O  0.65042566  0.67599819  0.87922875    -0.52300
O580        O  0.54734669  0.72542961  0.83350791    -0.97000
O581        O  0.53590116  0.79547245  0.75836281    -0.54200
O582        O  0.55092944  0.71561986  0.75032576    -0.73500
C583        C  0.55636338  0.69607300  0.72005874     0.98800
O584        O  0.66639553  0.66776003  0.66086415    -0.62300
O585        O  0.70981601  0.83656985  0.66567022    -0.57200
O586        O  0.67425603  0.74506799  0.65510872    -0.93800
O587        O  0.63346579  0.79089879  0.65401598    -0.92300
O588        O  0.79436206  0.78658815  0.69827802    -0.92600
O589        O  0.79598187  0.71634798  0.70439609    -0.91400
C590        C  0.64405482  0.76073502  0.64014342     1.17700
H591        H  0.73603741  0.82582350  0.75699655     0.33600
H592        H  0.73167182  0.68310877  0.75092669     0.44500
H593        H  0.59536721  0.76413917  0.70526203     0.38000
H594        H  0.62847565  0.74968201  0.85828907     0.34500
H595        H  0.81636330  0.73395030  0.80882134     0.26200
H596        H  0.66108834  0.69005531  0.90145153     0.32200
H597        H  0.51891047  0.73125555  0.82650775     0.38100
H598        H  0.82361683  0.78442533  0.70471385     0.32600
H599        H  0.69939199  0.86059261  0.66022057     0.31400
H600        H  0.60926519  0.87172639  0.72216274     0.33100
H601        H  0.51563987  0.77872530  0.74761725     0.32100
H602        H  0.77510537  0.70813802  0.68560353     0.36100
H603        H  0.63979471  0.66667963  0.64744825     0.28800
H604        H  0.71029065  0.84434538  0.89026508     0.33000
H605        H  0.58179716  0.80881751  0.84915060     0.35900
H606        H  0.73573681  0.84057266  0.67970001     0.28500
H607        H  0.68585422  0.67779411  0.64152690     0.41400
H608        H  0.75650460  0.65977669  0.83546607     0.31400
H609        H  0.79866983  0.69883411  0.79167731     0.39000
H610        H  0.54859590  0.80658940  0.73493338     0.30900
H611        H  0.62172144  0.68360185  0.87666806     0.31000
H612        H  0.66613025  0.83010046  0.90012844     0.31200
N613        N  0.40177276  0.59966136  0.66557264    -0.03300
C614        C  0.43575823  0.59143279  0.68579798    -0.00700
C615        C  0.42743642  0.56639515  0.71439069    -0.23600
C616        C  0.38610480  0.56299935  0.71579900    -0.23800
C617        C  0.37106863  0.58796723  0.68983886    -0.00800
H618        H  0.44742928  0.55786574  0.73751438     0.13000
H619        H  0.36990437  0.55176920  0.74070496     0.13000
N620        N  0.27772504  0.51253341  0.61863836    -0.03300
C621        C  0.27438180  0.49098981  0.64990522    -0.00700
C622        C  0.23639663  0.49380693  0.66720032    -0.23600
C623        C  0.21595931  0.51881249  0.64632562    -0.23800
C624        C  0.24232663  0.53108072  0.61715643    -0.00800
H625        H  0.22508411  0.47962481  0.69269395     0.13000
H626        H  0.18681107  0.52989490  0.65484987     0.13000
N627        N  0.42990559  0.38631166  0.62752686    -0.03300
C628        C  0.46867748  0.38072210  0.64128630    -0.00700
C629        C  0.47713238  0.40827951  0.66700213    -0.23600
C630        C  0.43994580  0.41753776  0.68243290    -0.23800
C631        C  0.41219146  0.39584869  0.66296294    -0.00800
H632        H  0.50456983  0.41035148  0.68418846     0.13000
H633        H  0.43682300  0.42906019  0.71137720     0.13000
N634        N  0.54161321  0.51815172  0.65403063    -0.03300
C635        C  0.54157490  0.48473185  0.66755149    -0.00700
C636        C  0.52224649  0.48195491  0.70343645    -0.23600
C637        C  0.51454423  0.51549644  0.71525282    -0.23800
C638        C  0.53167104  0.53775413  0.68697839    -0.00800
H639        H  0.52186650  0.45914061  0.72261005     0.13000
H640        H  0.50766788  0.52129444  0.74560230     0.13000
N641        N  0.43402582  0.42416700  0.35253438    -0.03300
C642        C  0.46411794  0.43088148  0.32521225    -0.00700
C643        C  0.44977200  0.45687489  0.29993765    -0.23600
C644        C  0.40829153  0.45695396  0.30453784    -0.23800
C645        C  0.39988740  0.42948575  0.33042164    -0.00800
H646        H  0.46473749  0.46838308  0.27467567     0.13000
H647        H  0.38770910  0.46877654  0.28366526     0.13000
N648        N  0.57060947  0.52647957  0.38173614    -0.03300
C649        C  0.56478726  0.49239914  0.36977129    -0.00700
C650        C  0.54433436  0.49064899  0.33490820    -0.23600
C651        C  0.54437715  0.52360937  0.32008513    -0.23800
C652        C  0.56529657  0.54474268  0.34674736    -0.00800
H653        H  0.53846666  0.46705053  0.31837407     0.13000
H654        H  0.53876473  0.52834632  0.28930037     0.13000
N655        N  0.43011024  0.66422996  0.41399636    -0.03300
C656        C  0.45985147  0.68754391  0.42556176    -0.00700
C657        C  0.44678720  0.70378751  0.46018334    -0.23600
C658        C  0.40539691  0.70078694  0.46025576    -0.23800
C659        C  0.39635954  0.68305522  0.42556376    -0.00800
H660        H  0.46280071  0.72178412  0.47909996     0.13000
H661        H  0.38561343  0.71689411  0.47833462     0.13000
N662        N  0.30373986  0.52983490  0.36420585    -0.03300
C663        C  0.28300919  0.49945040  0.37111471    -0.00700
C664        C  0.24582358  0.50580674  0.38889335    -0.23600
C665        C  0.24024309  0.54139002  0.38632012    -0.23800
C666        C  0.27202601  0.55353582  0.36252982    -0.00800
H667        H  0.22228509  0.48658771  0.39542790     0.13000
H668        H  0.21118264  0.55411741  0.39135648     0.13000
N669        N  0.55429647  0.64319764  0.51948077    -0.03300
C670        C  0.55945398  0.65202091  0.48107079    -0.00700
C671        C  0.54999673  0.68679812  0.47413995    -0.23600
C672        C  0.53956664  0.70096246  0.50934822    -0.23800
C673        C  0.54643696  0.67516544  0.53738072    -0.00800
H674        H  0.55425109  0.70101691  0.44687081     0.13000
H675        H  0.53672408  0.72909981  0.51458031     0.13000
N676        N  0.57626518  0.40802012  0.50841848    -0.03300
C677        C  0.59625002  0.40658902  0.47296347    -0.00700
C678        C  0.62286374  0.43514256  0.47116292    -0.23600
C679        C  0.63205970  0.44218668  0.50960444    -0.23800
C680        C  0.60849021  0.41869602  0.53162155    -0.00800
H681        H  0.64353811  0.44113211  0.44714266     0.13000
H682        H  0.66074078  0.45394248  0.51800295     0.13000
N683        N  0.29488610  0.64062216  0.50761262    -0.03300
C684        C  0.28398183  0.64808618  0.47014955    -0.00700
C685        C  0.28743905  0.68343730  0.46153092    -0.23600
C686        C  0.30065951  0.69925791  0.49456751    -0.23800
C687        C  0.30147041  0.67356088  0.52351714    -0.00800
H688        H  0.27945846  0.69639714  0.43430205     0.13000
H689        H  0.30136269  0.72762585  0.49885160     0.13000
N690        N  0.28427971  0.40678923  0.49465747    -0.03300
C691        C  0.25786336  0.41135286  0.46375869    -0.00700
C692        C  0.23125208  0.43872642  0.47312991    -0.23600
C693        C  0.23045913  0.44009811  0.51306146    -0.23800
C694        C  0.25856633  0.41513074  0.52563228    -0.00800
H695        H  0.20711889  0.44967218  0.45558189     0.13000
H696        H  0.20534162  0.45178515  0.52893210     0.13000
O697        O  0.82232220  0.94369966  0.99367351    -0.86300
O698        O  0.04746267  0.96445180  0.99481982    -0.86500
O699        O  0.93993016  0.92609939  0.91246183    -0.88100
O700        O  0.93965343  0.90393065  0.04062758    -0.86900
O701        O  0.93612883  0.93493738  0.09862070    -0.86500
O702        O  0.93878802  0.97748808  0.87704026    -0.87800
O703        O  0.00537397  0.91760676  0.98285365    -0.86300
O704        O  0.87568665  0.90834059  0.97494409    -0.85900
Zr705      Zr  0.93599726  0.94272715  0.98460176     2.84300
O706        O  0.97025715  0.97521814  0.03345016    -1.07900
O707        O  0.88951036  0.97966811  0.95302808    -1.08600
C708        C  0.83804688  0.91310731  0.98400978     1.06800
C709        C  0.04107499  0.93128449  0.98825752     1.06800
C710        C  0.94068407  0.94367754  0.87932572     1.09700
C711        C  0.94028632  0.90521983  0.07855910     1.07500
H712        H  0.98990964  0.97521228  0.93662679     0.33100
O713        O  0.97177063  0.98703336  0.95455255    -1.28800
H714        H  0.87623938  0.95043956  0.04594945     0.32800
O715        O  0.89172911  0.96872386  0.03280401    -1.30500
O716        O  0.04296660  0.07467293  0.00812704    -0.86300
O717        O  0.80971137  0.06383734  0.00336198    -0.87800
O718        O  0.99239049  0.02613813  0.89089706    -0.86400
O719        O  0.99466351  0.99736450  0.11489789    -0.86400
O720        O  0.85676380  0.99636561  0.11274414    -0.86100
O721        O  0.85948112  0.01525810  0.88911031    -0.85900
O722        O  0.92717689  0.12364600  0.94579180    -0.86300
O723        O  0.92406408  0.10531258  0.08119809    -0.85800
O724        O  0.92373824  0.08319176  0.89604050    -0.86800
O725        O  0.92519284  0.05746328  0.12320828    -0.86000
O726        O  0.04288164  0.02164735  0.93695078    -0.86400
O727        O  0.81178717  0.00213643  0.93627417    -0.86100
O728        O  0.81179596  0.99924015  0.06172219    -0.85800
O729        O  0.04012638  0.00549936  0.06439734    -0.86200
O730        O  0.99589613  0.11888483  0.01220321    -0.86500
O731        O  0.85291382  0.11142708  0.01099437    -0.87800
Zr732      Zr  0.00855175  0.01831238  0.00123914     2.83100
Zr733      Zr  0.84704756  0.00667628  0.99934286     2.83500
Zr734      Zr  0.92627305  0.02427116  0.92221195     2.84100
Zr735      Zr  0.92719374  0.00124303  0.08171331     2.83400
Zr736      Zr  0.92503839  0.08769224  0.01025367     2.84200
O737        O  0.88791253  0.04048965  0.04255019    -1.08400
O738        O  0.96690504  0.05724573  0.96578747    -1.07900
C739        C  0.03410067  0.10784708  0.01081239     1.06800
C740        C  0.81644565  0.09773312  0.00720859     1.09400
C741        C  0.02999166  0.02365293  0.90117434     1.07000
C742        C  0.03166473  0.99951535  0.10115697     1.07300
C743        C  0.81968212  0.99692035  0.09886393     1.06900
C744        C  0.82261193  0.00683674  0.89999308     1.06500
C745        C  0.92614693  0.11539655  0.90816570     1.06900
C746        C  0.92455124  0.09168319  0.11665302     1.06400
H747        H  0.86590989  0.06734330  0.95230011     0.33100
O748        O  0.88403933  0.05254962  0.96726911    -1.29500
H749        H  0.98179037  0.05888454  0.06496825     0.33100
O750        O  0.96495225  0.04614685  0.04658018    -1.30800
O751        O  0.41335438  0.60325535  0.59625686    -0.86300
O752        O  0.43091837  0.40712883  0.55840371    -0.86500
O753        O  0.34722921  0.50594545  0.60503917    -0.88100
O754        O  0.47831129  0.51366320  0.62379628    -0.86900
O755        O  0.53474859  0.52165791  0.58437817    -0.86500
O756        O  0.30344905  0.51962614  0.55532921    -0.87800
O757        O  0.41972347  0.44586940  0.60877429    -0.86300
O758        O  0.40152153  0.55050005  0.62702319    -0.85900
Zr759      Zr  0.41857888  0.50541141  0.58245223     2.84300
O760        O  0.46687700  0.47777004  0.54197468    -1.07900
O761        O  0.38026647  0.54743392  0.54942546    -1.08600
C762        C  0.40430899  0.58416815  0.62703576     1.06800
C763        C  0.42619332  0.41411762  0.59619034     1.06800
C764        C  0.31135522  0.51302145  0.59149029     1.09700
C765        C  0.51696603  0.51919099  0.61878289     1.07500
H766        H  0.36453479  0.46113466  0.54695322     0.33100
O767        O  0.38289656  0.47694899  0.53343607    -1.28800
H768        H  0.47665994  0.56198705  0.57734660     0.32800
O769        O  0.46345505  0.54831542  0.55724643    -1.30500
O770        O  0.43317561  0.42785144  0.42314601    -0.86300
O771        O  0.42996597  0.62967522  0.47053222    -0.87800
O772        O  0.31225143  0.46379135  0.49177027    -0.86400
O773        O  0.54724118  0.46497584  0.51549628    -0.86400
O774        O  0.54114161  0.58160446  0.51882281    -0.86100
O775        O  0.31224997  0.57967442  0.50322183    -0.85900
O776        O  0.37241245  0.53524692  0.38723018    -0.86300
O777        O  0.50400684  0.53983119  0.40191207    -0.85800
O778        O  0.31997268  0.53023133  0.43147406    -0.86800
O779        O  0.54987277  0.52543106  0.44988924    -0.86000
O780        O  0.35804494  0.41783014  0.49316899    -0.86400
O781        O  0.35949450  0.61996308  0.52413375    -0.86100
O782        O  0.48935270  0.62063223  0.53201445    -0.85800
O783        O  0.50338100  0.41981778  0.49958236    -0.86200
O784        O  0.43729689  0.47917096  0.38667902    -0.86500
O785        O  0.43410311  0.59977377  0.41199389    -0.87800
Zr786      Zr  0.43040681  0.44490200  0.49483330     2.83100
Zr787      Zr  0.42466905  0.58954726  0.52475748     2.83500
Zr788      Zr  0.34617985  0.52063615  0.49767898     2.84100
Zr789      Zr  0.51085455  0.52146006  0.51427230     2.83400
Zr790      Zr  0.43503936  0.53362766  0.42853756     2.84200
O791        O  0.47018278  0.56190677  0.48012710    -1.08400
O792        O  0.39385948  0.48970458  0.45870686    -1.07900
C793        C  0.43535548  0.44472082  0.38958010     1.06800
C794        C  0.43206174  0.62910812  0.43270324     1.09400
C795        C  0.32049689  0.43032692  0.49267791     1.07000
C796        C  0.53999335  0.43184597  0.50843440     1.07300
C797        C  0.52727344  0.61327948  0.52540668     1.06900
C798        C  0.32316427  0.61155987  0.51326585     1.06500
C799        C  0.33380459  0.53324553  0.39577018     1.06900
C800        C  0.54064511  0.53267723  0.41336317     1.06400
H801        H  0.37471194  0.57977278  0.45741546     0.33100
O802        O  0.39023865  0.56257078  0.47179953    -1.29500
H803        H  0.49102441  0.47921984  0.44849639     0.33100
O804        O  0.47210278  0.49088003  0.46607170    -1.30800
C805        C  0.61780042  0.73974842  0.61333051    -0.05300
C806        C  0.63641273  0.71446721  0.58893559    -0.32700
C807        C  0.61344254  0.68949682  0.56823500     0.36600
C808        C  0.57053609  0.68964974  0.57068827    -0.05600
C809        C  0.55180155  0.71470371  0.59560034    -0.32600
C810        C  0.57492617  0.73965550  0.61655648     0.36500
H811        H  0.66930001  0.71389825  0.58599489     0.16800
O812        O  0.63329474  0.66645294  0.54370069    -0.60100
H813        H  0.51885914  0.71631846  0.59682775     0.16800
O814        O  0.55520352  0.76347154  0.64033556    -0.60200
H815        H  0.55029294  0.78435573  0.62343074     0.43800
H816        H  0.64132821  0.68073202  0.52042589     0.43800
C817        C  0.62073513  0.61035486  0.73821113    -0.05300
C818        C  0.58220215  0.60639429  0.75554087    -0.32700
C819        C  0.55231289  0.58449287  0.73871164     0.36600
C820        C  0.55992822  0.56618569  0.70269542    -0.05600
C821        C  0.59830265  0.57118964  0.68485788    -0.32600
C822        C  0.62849316  0.59226244  0.70241071     0.36500
H823        H  0.57466961  0.62094246  0.78207024     0.16800
O824        O  0.51528902  0.58219644  0.75743380    -0.60100
H825        H  0.60583746  0.55743788  0.65783054     0.16800
O826        O  0.66581859  0.59459480  0.68421449    -0.60200
H827        H  0.68368778  0.57825687  0.69895416     0.43800
H828        H  0.52078353  0.57223880  0.78386066     0.43800
C829        C  0.52308522  0.67205443  0.70894325    -0.05300
C830        C  0.52564905  0.65284650  0.67352291    -0.32700
C831        C  0.49706620  0.62658060  0.66495218     0.36600
C832        C  0.46652200  0.61859315  0.69259692    -0.05600
C833        C  0.46323285  0.63827922  0.72722233    -0.32600
C834        C  0.49090427  0.66482739  0.73556107     0.36500
H835        H  0.55033195  0.65749586  0.65284216     0.16800
O836        O  0.50053535  0.60768071  0.63071807    -0.60100
H837        H  0.43913923  0.63269582  0.74832997     0.16800
O838        O  0.48671011  0.68262017  0.77050960    -0.60200
H839        H  0.49926004  0.66707339  0.79052451     0.43800
H840        H  0.49385991  0.62465305  0.60954498     0.43800
C841        C  0.68708588  0.34261124  0.59333728    -0.05300
C842        C  0.69101647  0.37917637  0.60005879    -0.32700
C843        C  0.66531329  0.40399372  0.58135390     0.36600
C844        C  0.63329173  0.39277828  0.55616846    -0.05600
C845        C  0.62919359  0.35618327  0.55019616    -0.32600
C846        C  0.65658008  0.33175389  0.56653734     0.36500
H847        H  0.71368513  0.38867220  0.62049613     0.16800
O848        O  0.67210072  0.43925001  0.58804267    -0.60100
H849        H  0.60534853  0.34616594  0.53154245     0.16800
O850        O  0.65341272  0.29709626  0.55529866    -0.60200
H851        H  0.67374588  0.29411707  0.53382941     0.43800
H852        H  0.64876968  0.44737856  0.60431054     0.43800
C853        C  0.52361483  0.28582652  0.69232162    -0.05300
C854        C  0.51510550  0.28740530  0.65144494    -0.32700
C855        C  0.49430996  0.31642092  0.63450248     0.36600
C856        C  0.48155791  0.34482326  0.65827361    -0.05600
C857        C  0.48470113  0.34010583  0.69974843    -0.32600
C858        C  0.50540705  0.31146825  0.71651645     0.36500
H859        H  0.52717621  0.26730237  0.63196201     0.16800
O860        O  0.49106387  0.31864220  0.59441404    -0.60100
H861        H  0.47314937  0.35991887  0.71985765     0.16800
O862        O  0.51086127  0.31088428  0.75645182    -0.60200
H863        H  0.48738088  0.29726722  0.76701493     0.43800
H864        H  0.46863929  0.30226645  0.58746468     0.43800
C865        C  0.57371691  0.45989237  0.65746081    -0.05300
C866        C  0.56453514  0.43033745  0.63449877    -0.32700
C867        C  0.58428431  0.39837078  0.64180064     0.36600
C868        C  0.61341731  0.39669264  0.67200091    -0.05600
C869        C  0.62792570  0.42822160  0.68863503    -0.32600
C870        C  0.60824862  0.45986647  0.68138209     0.36500
H871        H  0.53904171  0.43095531  0.61445718     0.16800
O872        O  0.57307005  0.36895917  0.62106010    -0.60100
H873        H  0.65239611  0.42800685  0.70984786     0.16800
O874        O  0.61972716  0.48972653  0.70143696    -0.60200
H875        H  0.60704216  0.48762759  0.72791275     0.43800
H876        H  0.56046372  0.35302384  0.64062584     0.43800
C877        C  0.23977890  0.73866674  0.60524782    -0.05300
C878        C  0.21880792  0.71040472  0.58767194    -0.32700
C879        C  0.23964210  0.68501756  0.56492285     0.36600
C880        C  0.28244957  0.68680767  0.56039348    -0.05600
C881        C  0.30345529  0.71387810  0.58000120    -0.32600
C882        C  0.28249568  0.74026724  0.60076700     0.36500
H883        H  0.18608129  0.70812914  0.59117830     0.16800
O884        O  0.21759988  0.66010655  0.54487020    -0.60100
H885        H  0.33595567  0.71697388  0.57519717     0.16800
O886        O  0.30407087  0.76835399  0.61536544    -0.60200
H887        H  0.30649377  0.78525051  0.59318063     0.43800
H888        H  0.20832353  0.67211849  0.52061792     0.43800
C889        C  0.29734632  0.65687672  0.76109802    -0.05300
C890        C  0.33302945  0.66892269  0.74235579    -0.32700
C891        C  0.35358345  0.64846089  0.71477425     0.36600
C892        C  0.34185253  0.61313058  0.70842841    -0.05600
C893        C  0.30653075  0.60039676  0.72777884    -0.32600
C894        C  0.28379317  0.62226998  0.75329425     0.36500
H895        H  0.34425134  0.69543487  0.74764211     0.16800
O896        O  0.38600886  0.66330618  0.69524407    -0.60100
H897        H  0.29688507  0.57329881  0.72334899     0.16800
O898        O  0.24784238  0.61008777  0.76901528    -0.60200
H899        H  0.25570633  0.59641143  0.79262767     0.43800
H900        H  0.37477332  0.67201947  0.67005947     0.43800
C901        C  0.23845097  0.56835455  0.60452579    -0.05300
C902        C  0.19843833  0.58098317  0.60015182    -0.32700
C903        C  0.18613904  0.61163619  0.61996733     0.36600
C904        C  0.21477318  0.63089703  0.64200994    -0.05600
C905        C  0.25630643  0.62305277  0.63701016    -0.32600
C906        C  0.26834563  0.59230976  0.61748965     0.36500
H907        H  0.17519640  0.56381482  0.58811451     0.16800
O908        O  0.14577104  0.62086495  0.62004435    -0.60100
H909        H  0.27941394  0.63903083  0.65106470     0.16800
O910        O  0.30862348  0.58317079  0.61797316    -0.60200
H911        H  0.32063302  0.59457739  0.59436616     0.43800
H912        H  0.14333106  0.63898694  0.59913859     0.43800
C913        C  0.24518834  0.38863020  0.55673916    -0.05300
C914        C  0.25958436  0.35369696  0.55527371    -0.32700
C915        C  0.24313652  0.32705927  0.57969509     0.36600
C916        C  0.21187776  0.33489230  0.60731432    -0.05600
C917        C  0.19853609  0.36993914  0.60999611    -0.32600
C918        C  0.21512430  0.39657801  0.58592056     0.36500
H919        H  0.28359839  0.34669526  0.53487595     0.16800
O920        O  0.25832340  0.29341088  0.57660278    -0.60100
H921        H  0.17636363  0.37722878  0.63233930     0.16800
O922        O  0.20212960  0.43045830  0.59238472    -0.60200
H923        H  0.22246755  0.44088934  0.61032306     0.43800
H924        H  0.24739962  0.28398718  0.55157647     0.43800
C925        C  0.30430180  0.46493467  0.66255123    -0.05300
C926        C  0.30942514  0.46298029  0.70328773    -0.32700
C927        C  0.30041272  0.43131003  0.72211355     0.36600
C928        C  0.29130574  0.40149312  0.69916900    -0.05600
C929        C  0.29941666  0.40181845  0.65868672    -0.32600
C930        C  0.30690171  0.43391865  0.64005254     0.36500
H931        H  0.31037045  0.48698856  0.72067361     0.16800
O932        O  0.29678525  0.43042970  0.76234502    -0.60100
H933        H  0.29455214  0.37840842  0.64094009     0.16800
O934        O  0.30651510  0.43542194  0.59979980    -0.60200
H935        H  0.33041474  0.42144009  0.59095287     0.43800
H936        H  0.27037008  0.44197152  0.76846916     0.43800
C937        C  0.38891567  0.36969503  0.68890510    -0.05300
C938        C  0.37909085  0.37822642  0.72851688    -0.32700
C939        C  0.36221867  0.35328585  0.75482270     0.36600
C940        C  0.35479211  0.31835148  0.74246546    -0.05600
C941        C  0.36560779  0.30953998  0.70338843    -0.32600
C942        C  0.38084511  0.33476026  0.67659266     0.36500
H943        H  0.38347406  0.40477573  0.73939491     0.16800
O944        O  0.35123283  0.36407981  0.79190111    -0.60100
H945        H  0.36129588  0.28283739  0.69299011     0.28400
O946        O  0.38826383  0.32452227  0.63852788    -0.60200
H947        H  0.36205792  0.32799310  0.62473309     0.43800
H948        H  0.37566085  0.36000731  0.80824917     0.43800
C949        C  0.16522044  0.22413875  0.93148828    -0.05300
C950        C  0.12467082  0.22834662  0.94548175    -0.32700
C951        C  0.10133831  0.19962338  0.96081680     0.36600
C952        C  0.11837539  0.16539977  0.96368092    -0.05600
C953        C  0.16050542  0.16265814  0.95326053    -0.32600
C954        C  0.18322189  0.19087434  0.93724326     0.36500
H955        H  0.11012188  0.25387079  0.94299491     0.16800
O956        O  0.06192471  0.20534568  0.97305404    -0.60100
H957        H  0.17691409  0.13817386  0.95651433     0.16800
O958        O  0.22241479  0.18459994  0.92483791    -0.60200
H959        H  0.23910816  0.18540301  0.94900631     0.43800
H960        H  0.04717211  0.21441657  0.94982461     0.43800
C961        C  0.57803404  0.63020784  0.44979658    -0.05300
C962        C  0.55772207  0.63217559  0.41388053    -0.32700
C963        C  0.57754923  0.64704343  0.38118401     0.36600
C964        C  0.61892146  0.65731546  0.38423741    -0.05600
C965        C  0.64117916  0.64524592  0.41667982    -0.32600
C966        C  0.62080252  0.62979299  0.44872203     0.36500
H967        H  0.52478172  0.63015130  0.41355638     0.16800
O968        O  0.55511542  0.65609753  0.34880843    -0.60100
H969        H  0.67368237  0.64990984  0.41839843     0.16800
O970        O  0.64232826  0.62041075  0.48138258    -0.60200
H971        H  0.64880107  0.59505385  0.47756932     0.43800
H972        H  0.53564545  0.63652325  0.34419758     0.43800
C973        C  0.52259933  0.74924605  0.33390983    -0.05300
C974        C  0.52275317  0.76106458  0.37296805    -0.32700
C975        C  0.50245422  0.74237965  0.40301480     0.36600
C976        C  0.48275298  0.70949177  0.39505661    -0.05600
C977        C  0.48139993  0.69878241  0.35552649    -0.32600
C978        C  0.49963703  0.71866285  0.32514434     0.36500
H979        H  0.53988529  0.78450110  0.38076645     0.16800
O980        O  0.50363646  0.75655512  0.44001749    -0.60100
H981        H  0.46679341  0.67420441  0.34782033     0.16800
O982        O  0.49449548  0.70818996  0.28679103    -0.60200
H983        H  0.50181242  0.68279778  0.28567619     0.43800
H984        H  0.48186748  0.77471881  0.44050885     0.43800
C985        C  0.64928400  0.61652721  0.28380844    -0.05300
C986        C  0.60914331  0.60976088  0.27172617    -0.32700
C987        C  0.58115078  0.59081668  0.29465167     0.36600
C988        C  0.59354393  0.57270904  0.32903995    -0.05600
C989        C  0.63447916  0.57775113  0.34091104    -0.32600
C990        C  0.66187843  0.60002268  0.31917220     0.36500
H991        H  0.59815486  0.62055474  0.24435453     0.16800
O992        O  0.54135362  0.58955042  0.28230936    -0.60100
H993        H  0.64535424  0.56433444  0.36690377     0.16800
O994        O  0.70029278  0.60582903  0.33325203    -0.60200
H995        H  0.71782512  0.58847966  0.31932387     0.43800
H996        H  0.53169696  0.61433191  0.28104224     0.43800
C997        C  0.64689439  0.30658974  0.42913445    -0.05300
C998        C  0.60510060  0.30984410  0.43901934    -0.32700
C999        C  0.58831384  0.34193264  0.45258212     0.36600
C1000       C  0.61332184  0.37172186  0.45788076    -0.05600
C1001       C  0.65586165  0.36728491  0.45137020    -0.32600
C1002       C  0.67243193  0.33551363  0.43715756     0.36500
H1003       H  0.58475974  0.28768413  0.43471377     0.16800
O1004       O  0.54732545  0.34391418  0.46035657    -0.60100
H1005       H  0.67703949  0.38853644  0.45711684     0.16800
O1006       O  0.71343526  0.33386791  0.42939710    -0.60200
H1007       H  0.72580073  0.32520774  0.45409932     0.43800
H1008       H  0.53426458  0.34656924  0.43432173     0.43800
C1009       C  0.59011164  0.46149904  0.37958641    -0.05300
C1010       C  0.63107796  0.46144651  0.36734958    -0.32700
C1011       C  0.65027549  0.42983208  0.35569024     0.36600
C1012       C  0.62839337  0.39755712  0.35640896    -0.05600
C1013       C  0.58865317  0.39767207  0.37227436    -0.32600
C1014       C  0.56993475  0.42898599  0.38429679     0.36500
H1015       H  0.64677026  0.48631514  0.36261713     0.16800
O1016       O  0.68939680  0.43131939  0.34133818    -0.60100
H1017       H  0.57078138  0.37362080  0.37348427     0.16800
O1018       O  0.52971173  0.42817447  0.39539968    -0.60200
H1019       H  0.52978564  0.42223736  0.42373956     0.43800
H1020       H  0.68671910  0.43779015  0.31320587     0.43800
C1021       C  0.52806642  0.33996713  0.27263708    -0.05300
C1022       C  0.53424997  0.37396066  0.25730772    -0.32700
C1023       C  0.51536044  0.40396321  0.27413630     0.36600
C1024       C  0.48926199  0.40067602  0.30778432    -0.05600
C1025       C  0.48319734  0.36634845  0.32266138    -0.32600
C1026       C  0.50088403  0.33647455  0.30490395     0.36500
H1027       H  0.55492805  0.37765516  0.23265231     0.16800
O1028       O  0.52261309  0.43609428  0.25679638    -0.60100
H1029       H  0.46355801  0.36223615  0.34787622     0.16800
O1030       O  0.49091811  0.30380045  0.31945859    -0.60200
H1031       H  0.46695023  0.29609790  0.30406308     0.43800
H1032       H  0.55246009  0.44002735  0.25831275     0.43800
C1033       C  0.23925917  0.65003279  0.37000488    -0.05300
C1034       C  0.28042997  0.64022088  0.37210606    -0.32700
C1035       C  0.29572652  0.62444642  0.40609235     0.36600
C1036       C  0.27075582  0.62340455  0.43969109    -0.05600
C1037       C  0.22846773  0.62377838  0.43447000    -0.32600
C1038       C  0.21245544  0.63883854  0.40028531     0.36500
H1039       H  0.30152083  0.64726802  0.34881880     0.16800
O1040       O  0.33701864  0.62069485  0.41010951    -0.60100
H1041       H  0.20846402  0.62040601  0.45971087     0.16800
O1042       O  0.17138058  0.64527166  0.39838953    -0.60200
H1043       H  0.16656583  0.66606661  0.41559020     0.43800
H1044       H  0.34617222  0.60583885  0.38773319     0.43800
C1045       C  0.23264684  0.60999505  0.25565954    -0.05300
C1046       C  0.27452715  0.60615920  0.26466724    -0.32700
C1047       C  0.28788893  0.58732231  0.29821220     0.36600
C1048       C  0.25951324  0.57128675  0.32396223    -0.05600
C1049       C  0.21795141  0.57242121  0.31248480    -0.32600
C1050       C  0.20457517  0.59187427  0.27980552     0.36500
H1051       H  0.29722135  0.61908572  0.24651053     0.16800
O1052       O  0.32857708  0.58699485  0.30696461    -0.60100
H1053       H  0.19462037  0.55886739  0.32921244     0.16800
O1054       O  0.16353914  0.59395496  0.27283309    -0.60200
H1055       H  0.15283802  0.61096294  0.29256617     0.43800
H1056       H  0.34010996  0.56707664  0.29157354     0.43800
C1057       C  0.33100780  0.74511393  0.33863951    -0.05300
C1058       C  0.35504868  0.71585986  0.32770265    -0.32700
C1059       C  0.37329749  0.69402127  0.35559757     0.36600
C1060       C  0.37088755  0.70253827  0.39585669    -0.05600
C1061       C  0.34793869  0.73284829  0.40666998    -0.32600
C1062       C  0.32804434  0.75370407  0.37872524     0.36500
H1063       H  0.35912036  0.70901168  0.29711610     0.16800
O1064       O  0.39401952  0.66467232  0.34285820    -0.60100
H1065       H  0.34497447  0.74102898  0.43691786     0.16800
O1066       O  0.30550073  0.78211251  0.39121792    -0.60200
H1067       H  0.32417173  0.80266811  0.38915409     0.43800
H1068       H  0.37310403  0.64831894  0.33245388     0.43800
C1069       C  0.11355009  0.95175567  0.15621090    -0.05300
C1070       C  0.08880371  0.94214187  0.18859434    -0.32700
C1071       C  0.10380493  0.92073560  0.21948403     0.36600
C1072       C  0.14420669  0.90749207  0.21842833    -0.05600
C1073       C  0.16991216  0.91980302  0.18855104    -0.32600
C1074       C  0.15571707  0.94197267  0.15854599     0.36500
H1075       H  0.05727463  0.95051590  0.18955977     0.16800
O1076       O  0.07833660  0.91237164  0.25024913    -0.60100
H1077       H  0.20124572  0.91088006  0.18715824     0.16800
O1078       O  0.18414282  0.95309049  0.13159441    -0.60200
H1079       H  0.19820907  0.97331658  0.14415428     0.43800
H1080       H  0.08115316  0.93221186  0.26910783     0.43800
C1081       C  0.19625960  0.32220320  0.40643884    -0.05300
C1082       C  0.23256252  0.31708804  0.42780026    -0.32700
C1083       C  0.25429700  0.34563346  0.44431750     0.36600
C1084       C  0.23955288  0.38054353  0.44099369    -0.05600
C1085       C  0.20378596  0.38539504  0.41843108    -0.32600
C1086       C  0.18197540  0.35700337  0.40240265     0.36500
H1087       H  0.24485800  0.29072473  0.43096601     0.16800
O1088       O  0.29030557  0.33890009  0.46296204    -0.60100
H1089       H  0.19197808  0.41141966  0.41256238     0.16800
O1090       O  0.14779050  0.36410967  0.38089304    -0.60200
H1091       H  0.12456181  0.35923801  0.39892647     0.43800
H1092       H  0.31179887  0.34314370  0.44284193     0.43800
C1093       C  0.37647481  0.39796208  0.31402384    -0.05300
C1094       C  0.36132570  0.39797659  0.27497896    -0.32700
C1095       C  0.34390590  0.36781287  0.25766944     0.36600
C1096       C  0.34080345  0.33596101  0.27881236    -0.05600
C1097       C  0.35545905  0.33585223  0.31787129    -0.32600
C1098       C  0.37234910  0.36631616  0.33557012     0.36500
H1099       H  0.36292819  0.42131720  0.25683707     0.16800
O1100       O  0.32864667  0.37041689  0.22036562    -0.60100
H1101       H  0.35310585  0.31210811  0.33540241     0.16800
O1102       O  0.38225607  0.36563854  0.37476105    -0.60200
H1103       H  0.40173164  0.34588131  0.37802858     0.43800
H1104       H  0.35192051  0.36487808  0.20265459     0.43800
C1105       C  0.26138348  0.40466397  0.31279916    -0.05300
C1106       C  0.28255442  0.40420172  0.34864416    -0.32700
C1107       C  0.29607041  0.43554690  0.36567426     0.36600
C1108       C  0.28798635  0.46774454  0.34723354    -0.05600
C1109       C  0.27172903  0.46818028  0.30937397    -0.32600
C1110       C  0.25802716  0.43696032  0.29212257     0.36500
H1111       H  0.28689080  0.37976837  0.36462775     0.16800
O1112       O  0.31379881  0.43479177  0.40198403    -0.60100
H1113       H  0.26551386  0.49314299  0.29500161     0.16800
O1114       O  0.23935242  0.43881153  0.25622505    -0.60200
H1115       H  0.21081099  0.44578018  0.26207122     0.43800
H1116       H  0.34341104  0.43747504  0.39693599     0.43800
C1117       C  0.17760446  0.19768135  0.09871160    -0.05300
C1118       C  0.18148511  0.16147699  0.10668030    -0.32700
C1119       C  0.15610484  0.13632426  0.08814546     0.36600
C1120       C  0.12463749  0.14717372  0.06222221    -0.05600
C1121       C  0.12027705  0.18356527  0.05584703    -0.32600
C1122       C  0.14761351  0.20816240  0.07150883     0.36500
H1123       H  0.20290965  0.15267167  0.12867175     0.16800
O1124       O  0.16050348  0.10142356  0.09782333    -0.60100
H1125       H  0.09573500  0.19328131  0.03807182     0.16800
O1126       O  0.14309627  0.24307563  0.06165839    -0.60200
H1127       H  0.16418663  0.24759790  0.04122167     0.43800
H1128       H  0.18838218  0.09479033  0.08912700     0.43800
C1129       C  0.11464158  0.11983619  0.18649594    -0.05300
C1130       C  0.13059712  0.08709769  0.19803072    -0.32700
C1131       C  0.11911456  0.05620539  0.17891670     0.36600
C1132       C  0.09175951  0.05775246  0.14745708    -0.05600
C1133       C  0.07282212  0.08962183  0.13802685    -0.32600
C1134       C  0.08364528  0.12064065  0.15778960     0.36500
H1135       H  0.15350306  0.08540475  0.22071137     0.16800
O1136       O  0.13625873  0.02475525  0.18995389    -0.60100
H1137       H  0.05120485  0.09077542  0.11411978     0.16800
O1138       O  0.06397674  0.15147678  0.14877105    -0.60200
H1139       H  0.07431076  0.15866468  0.12258445     0.43800
H1140       H  0.16324546  0.02414248  0.17667414     0.43800
C1141       C  0.83061671  0.16596053  0.26994590    -0.05300
C1142       C  0.81802874  0.13282282  0.25514415    -0.32700
C1143       C  0.83995844  0.11580983  0.22416646     0.36600
C1144       C  0.87345036  0.13284708  0.20569820    -0.05600
C1145       C  0.88814437  0.16370287  0.22423044    -0.32600
C1146       C  0.86812083  0.17939823  0.25620249     0.36500
H1147       H  0.78914485  0.12179635  0.26471965     0.16800
O1148       O  0.82567875  0.08447668  0.20950876    -0.60100
H1149       H  0.91197203  0.17910002  0.21085552     0.16800
O1150       O  0.88175102  0.21166259  0.26907794    -0.60200
H1151       H  0.89914213  0.20633040  0.29202199     0.43800
H1152       H  0.84501903  0.06628455  0.21885563     0.43800
C1153       C  0.97371456  0.16765166  0.16471960    -0.05300
C1154       C  0.98552634  0.15655199  0.20280764    -0.32700
C1155       C  0.00896021  0.17879446  0.22791644     0.36600
C1156       C  0.02113211  0.21301105  0.21547898    -0.05600
C1157       C  0.00966558  0.22330672  0.17732015    -0.32600
C1158       C  0.98870038  0.20072653  0.15176761     0.36500
H1159       H  0.97493285  0.13132340  0.21390817     0.16800
O1160       O  0.01988389  0.16659480  0.26427043    -0.60100
H1161       H  0.01774942  0.24925961  0.16644498     0.16800
O1162       O  0.98276028  0.21167019  0.11378834    -0.60200
H1163       H  0.00546691  0.20105776  0.09843325     0.43800
H1164       H  0.99950320  0.17672466  0.28275951     0.43800
C1165       C  0.74264546  0.95027968  0.16158190    -0.05300
C1166       C  0.76806909  0.94632238  0.19448091    -0.32700
C1167       C  0.75481861  0.92820244  0.22871747     0.36600
C1168       C  0.71452979  0.91477704  0.23173149    -0.05600
C1169       C  0.68795351  0.92219140  0.20093621    -0.32600
C1170       C  0.70118526  0.93906253  0.16642225     0.36500
H1171       H  0.79909504  0.95603371  0.19304921     0.16800
O1172       O  0.78216617  0.92262329  0.25832059    -0.60100
H1173       H  0.65671339  0.91295908  0.20234536     0.16800
O1174       O  0.67214329  0.94538981  0.13856801    -0.60200
H1175       H  0.66554085  0.92196945  0.12711702     0.43800
H1176       H  0.77782002  0.94241587  0.27699494     0.43800
C1177       C  0.74473480  0.05171623  0.13904660    -0.05300
C1178       C  0.76921965  0.08174097  0.13907859    -0.32700
C1179       C  0.75811904  0.11129357  0.16129188     0.36600
C1180       C  0.72200632  0.11135985  0.18435193    -0.05600
C1181       C  0.69742207  0.08100729  0.18411390    -0.32600
C1182       C  0.70868993  0.05130100  0.16202976     0.36500
H1183       H  0.79704134  0.08238111  0.12169143     0.16800
O1184       O  0.78405906  0.13944955  0.16142746    -0.60100
H1185       H  0.66947836  0.08004804  0.20124248     0.16800
O1186       O  0.68426997  0.02191645  0.16320837    -0.60200
H1187       H  0.69021246  0.01052240  0.18878563     0.43800
H1188       H  0.77087529  0.15732430  0.14479095     0.43800
C1189       C  0.04298454  0.77291114  0.15130513    -0.05300
C1190       C  0.05771647  0.78231393  0.11383099    -0.32700
C1191       C  0.04017619  0.81042174  0.09254777     0.36600
C1192       C  0.00670067  0.82963055  0.10849582    -0.05600
C1193       C  0.99383227  0.82111241  0.14678450    -0.32600
C1194       C  0.01025036  0.79245380  0.16727285     0.36500
H1195       H  0.08369252  0.76855741  0.10137105     0.16800
O1196       O  0.05519299  0.81852749  0.05576198    -0.60100
H1197       H  0.96962634  0.83571491  0.16055425     0.16800
O1198       O  0.99405188  0.78389592  0.20335419    -0.60200
H1199       H  0.97426159  0.76467361  0.19808763     0.43800
H1200       H  0.08484153  0.82260677  0.05882341     0.43800
C1201       C  0.89412233  0.82541048  0.12228096    -0.05300
C1202       C  0.87901387  0.79072753  0.11524445    -0.32700
C1203       C  0.85761931  0.77128785  0.14397541     0.36600
C1204       C  0.85067574  0.78565661  0.18150332    -0.05600
C1205       C  0.86848558  0.81892862  0.18973845    -0.32600
C1206       C  0.88957167  0.83872502  0.16078249     0.36500
H1207       H  0.88273144  0.77802734  0.08708182     0.16800
O1208       O  0.84231842  0.73874244  0.13422905    -0.60100
H1209       H  0.86450473  0.83079157  0.21844605     0.16800
O1210       O  0.90357635  0.87200345  0.16980883    -0.60200
H1211       H  0.92018787  0.86955923  0.19390409     0.43800
H1212       H  0.86361726  0.72165224  0.14212032     0.43800
C1213       C  0.07873770  0.96795219  0.84186820    -0.05300
C1214       C  0.11655780  0.96419499  0.82308288    -0.32700
C1215       C  0.13384082  0.93098146  0.81787169     0.36600
C1216       C  0.11314744  0.90056197  0.83162834    -0.05600
C1217       C  0.07654744  0.90470431  0.85262149    -0.32600
C1218       C  0.06031808  0.93840848  0.85914651     0.36500
H1219       H  0.13188522  0.98701027  0.81058597     0.16800
O1220       O  0.16957211  0.92856126  0.79687145    -0.60100
H1221       H  0.06003524  0.88184334  0.86329275     0.16800
O1222       O  0.02532355  0.94203882  0.88053026    -0.60200
H1223       H  0.03242337  0.93472018  0.90751476     0.43800
H1224       H  0.16151946  0.93015903  0.76886507     0.43800
C1225       C  0.08394484  0.08536581  0.87260830    -0.05300
C1226       C  0.06294899  0.11623907  0.88163159    -0.32700
C1227       C  0.08314148  0.14830407  0.87819165     0.36600
C1228       C  0.12375144  0.14848840  0.86441685    -0.05600
C1229       C  0.14657599  0.11732721  0.86531762    -0.32600
C1230       C  0.12655135  0.08531905  0.86950583     0.36500
H1231       H  0.03036223  0.11572056  0.88667802     0.16800
O1232       O  0.06207175  0.17887977  0.88503917    -0.60100
H1233       H  0.17864344  0.11741302  0.85745288     0.16800
O1234       O  0.14760978  0.05434753  0.86409009    -0.60200
H1235       H  0.15224200  0.05239324  0.83529906     0.43800
H1236       H  0.05828337  0.18962545  0.85897920     0.43800
C1237       C  0.87225300  0.90877362  0.81978441    -0.05300
C1238       C  0.87007139  0.88946325  0.78481956    -0.32700
C1239       C  0.84365163  0.86117514  0.78164546     0.36600
C1240       C  0.81894781  0.85156765  0.81402557    -0.05600
C1241       C  0.81966298  0.87213406  0.84841454    -0.32600
C1242       C  0.84700467  0.90021118  0.85179015     0.36500
H1243       H  0.88982627  0.89574253  0.76007753     0.16800
O1244       O  0.84163950  0.84372554  0.74634403    -0.60100
H1245       H  0.79928795  0.86633065  0.87272812     0.16800
O1246       O  0.84934282  0.91874999  0.88636556    -0.60200
H1247       H  0.82321037  0.93168205  0.88872724     0.43800
H1248       H  0.82023550  0.85616606  0.73128357     0.43800
C1249       C  0.99233333  0.90413571  0.79350418    -0.05300
C1250       C  0.97703410  0.86937417  0.79396744    -0.32700
C1251       C  0.99384477  0.84294662  0.76980930     0.36600
C1252       C  0.02847094  0.85004012  0.74611548    -0.05600
C1253       C  0.04372537  0.88467627  0.74535835    -0.32600
C1254       C  0.02555983  0.91159635  0.76794965     0.36500
H1255       H  0.95063031  0.86285542  0.81182799     0.16800
O1256       O  0.97586765  0.81020128  0.76955812    -0.60100
H1257       H  0.07047008  0.89093055  0.72781093     0.16800
O1258       O  0.04114759  0.94510392  0.76544424    -0.60200
H1259       H  0.03585836  0.95306598  0.73816527     0.43800
H1260       H  0.96154500  0.80863384  0.74403998     0.43800
C1261       C  0.85438139  0.24033350  0.79279982    -0.05300
C1262       C  0.85815771  0.23857170  0.83421119    -0.32700
C1263       C  0.87127766  0.20741075  0.85357652     0.36600
C1264       C  0.88268176  0.17737680  0.83157277    -0.05600
C1265       C  0.88285451  0.18093781  0.78991902    -0.32600
C1266       C  0.86888471  0.21140814  0.77087762     0.36500
H1267       H  0.84946309  0.26112501  0.85191419     0.16800
O1268       O  0.87356559  0.20668866  0.89392428    -0.60100
H1269       H  0.89351770  0.15985121  0.77106214     0.16800
O1270       O  0.86715630  0.21142932  0.73059365    -0.60200
H1271       H  0.89492215  0.21815025  0.72163508     0.43800
H1272       H  0.84666997  0.21464834  0.90401221     0.43800
C1273       C  0.98516769  0.16341703  0.83060543    -0.05300
C1274       C  0.01113465  0.15538330  0.79838077    -0.32700
C1275       C  0.03239745  0.18177896  0.77763318     0.36600
C1276       C  0.02855010  0.21748792  0.78867364    -0.05600
C1277       C  0.00282883  0.22571529  0.82076197    -0.32600
C1278       C  0.98196372  0.19921845  0.84212350     0.36500
H1279       H  0.01606867  0.12826617  0.78957453     0.16800
O1280       O  0.05967524  0.17190608  0.74892478    -0.60100
H1281       H  0.00106764  0.25273274  0.83118512     0.16800
O1282       O  0.96233760  0.20796273  0.87663717    -0.60200
H1283       H  0.94787009  0.23054009  0.87196547     0.43800
H1284       H  0.04332339  0.16942349  0.72468287     0.43800
C1285       C  0.69999251  0.90466789  0.80856182    -0.05300
C1286       C  0.73779188  0.91865466  0.79595978    -0.32700
C1287       C  0.75904459  0.94402957  0.81890485     0.36600
C1288       C  0.74382103  0.95440714  0.85624847    -0.05600
C1289       C  0.70802513  0.93784796  0.86991429    -0.32600
C1290       C  0.68519092  0.91533731  0.84590825     0.36500
H1291       H  0.75069756  0.91032384  0.76805100     0.16800
O1292       O  0.79407098  0.95903522  0.80426004    -0.60100
H1293       H  0.69498948  0.94573929  0.89797058     0.16800
O1294       O  0.64744073  0.90482422  0.85904401    -0.60200
H1295       H  0.62876731  0.92433212  0.85189684     0.43800
H1296       H  0.78597136  0.97158322  0.77996204     0.43800
C1297       C  0.80418413  0.06863184  0.84500263    -0.05300
C1298       C  0.80429373  0.09991124  0.86675246    -0.32700
C1299       C  0.79786721  0.13223488  0.84796315     0.36600
C1300       C  0.79319080  0.13300641  0.80660716    -0.05600
C1301       C  0.80126070  0.10229347  0.78477065    -0.32600
C1302       C  0.80750876  0.07015937  0.80389972     0.36500
H1303       H  0.80191835  0.09871702  0.89855912     0.16800
O1304       O  0.78998772  0.16168348  0.87043032    -0.60100
H1305       H  0.79911255  0.10248781  0.75299034     0.16800
O1306       O  0.80851819  0.03962516  0.78223342    -0.60200
H1307       H  0.83704916  0.03758378  0.77272522     0.43800
H1308       H  0.81032707  0.16189539  0.89181959     0.43800
C1309       C  0.12436801  0.90898452  0.04093957    -0.05300
C1310       C  0.09474311  0.90161641  0.06979206    -0.32700
C1311       C  0.10431049  0.88186617  0.10335624     0.36600
C1312       C  0.14355982  0.86720712  0.10680937    -0.05600
C1313       C  0.17387719  0.87694830  0.07957804    -0.32600
C1314       C  0.16475942  0.89748065  0.04693768     0.36500
H1315       H  0.06368964  0.91054418  0.06588710     0.16800
O1316       O  0.07490499  0.87525230  0.13149974    -0.60100
H1317       H  0.20477288  0.86727758  0.08232680     0.16800
O1318       O  0.19531615  0.90421727  0.02023796    -0.60200
H1319       H  0.20032652  0.88150990  0.00647468     0.43800
H1320       H  0.05719310  0.89640061  0.13335339     0.43800
C1321       C  0.09646134  0.86198321  0.93995956    -0.05300
C1322       C  0.13609637  0.84781215  0.94120677    -0.32700
C1323       C  0.14437934  0.81364502  0.92820559     0.36600
C1324       C  0.11291958  0.79278025  0.91246756    -0.05600
C1325       C  0.07241666  0.80500148  0.91646274    -0.32600
C1326       C  0.06408213  0.83924382  0.93063515     0.36500
H1327       H  0.16145950  0.86380301  0.95083453     0.16800
O1328       O  0.18407461  0.80239441  0.92766950    -0.60100
H1329       H  0.04734254  0.78879978  0.90648817     0.16800
O1330       O  0.02463199  0.85100979  0.93245142    -0.60200
H1331       H  0.01428957  0.84322242  0.95853290     0.43800
H1332       H  0.18937077  0.79397349  0.95476498     0.43800
C1333       C  0.74539336  0.15581199  0.06138897    -0.05300
C1334       C  0.70345234  0.16329032  0.06731315    -0.32700
C1335       C  0.68993766  0.19234277  0.08956353     0.36600
C1336       C  0.71808803  0.21595680  0.10628845    -0.05600
C1337       C  0.75983178  0.21103206  0.09652987    -0.32600
C1338       C  0.77339736  0.18156699  0.07414435     0.36500
H1339       H  0.68028970  0.14600119  0.05553239     0.16800
O1340       O  0.64891750  0.19630888  0.09611012    -0.60100
H1341       H  0.78249886  0.22885739  0.10830088     0.16800
O1342       O  0.81432858  0.17658875  0.06815111    -0.60200
H1343       H  0.82134691  0.19122484  0.04488973     0.43800
H1344       H  0.64227853  0.18007855  0.11816078     0.43800
C1345       C  0.73463342  0.13489609  0.94894354    -0.05300
C1346       C  0.71084629  0.12056632  0.91833728    -0.32700
C1347       C  0.69205595  0.14217794  0.88976168     0.36600
C1348       C  0.69500302  0.17928199  0.89221641    -0.05600
C1349       C  0.71765557  0.19352452  0.92371023    -0.32600
C1350       C  0.73779111  0.17202683  0.95107555     0.36500
H1351       H  0.70688478  0.09226243  0.91664308     0.16800
O1352       O  0.67285516  0.12664358  0.85854526    -0.60100
H1353       H  0.72082969  0.22188659  0.92673472     0.16800
O1354       O  0.75939239  0.18799363  0.98047784    -0.60200
H1355       H  0.78792062  0.18883705  0.97070053     0.43800
H1356       H  0.64469724  0.12189422  0.86789560     0.43800
C1357       C  0.79357340  0.89031815  0.06050986    -0.05300
C1358       C  0.81397452  0.89297220  0.09638091    -0.32700
C1359       C  0.79441550  0.88235904  0.13110473     0.36600
C1360       C  0.75440547  0.86888649  0.12911612    -0.05600
C1361       C  0.73175203  0.87486155  0.09482997    -0.32600
C1362       C  0.75103750  0.88704857  0.06079409     0.36500
H1363       H  0.84658951  0.89742369  0.09662784     0.16800
O1364       O  0.81585062  0.88106877  0.16555565    -0.60100
H1365       H  0.69997009  0.86726250  0.09334841     0.16800
O1366       O  0.72929614  0.88918816  0.02663717    -0.60200
H1367       H  0.73132918  0.91423644  0.01828897     0.43800
H1368       H  0.83060115  0.90385578  0.16775199     0.43800
C1369       C  0.79904363  0.82973302  0.94555268    -0.05300
C1370       C  0.75870787  0.82506622  0.95829564    -0.32700
C1371       C  0.73497813  0.79701113  0.94477504     0.36600
C1372       C  0.74991113  0.77401175  0.91539374    -0.05600
C1373       C  0.79026519  0.77849726  0.90208912    -0.32600
C1374       C  0.81504546  0.80565764  0.91754617     0.36500
H1375       H  0.74640293  0.84147791  0.98137699     0.16800
O1376       O  0.69636096  0.79282535  0.95981622    -0.60100
H1377       H  0.80231927  0.76153036  0.87914464     0.16800
O1378       O  0.85554002  0.80729889  0.90720928    -0.60200
H1379       H  0.85629459  0.81180091  0.87850657     0.43800
H1380       H  0.69993900  0.77991707  0.98492697     0.43800
loop_ 
_geom_bond_atom_site_label_1 
_geom_bond_atom_site_label_2 
_geom_bond_distance 
_geom_bond_site_symmetry_2 
_ccdc_geom_bond_type 
N1            C5   1.382       .  A
N1            C2   1.352   1_556  A
N1          C708   1.449       .  S
C2            C3   1.370       .  A
C2         C1357   1.463       .  S
C3            C4   1.356   1_554  A
C3            H6   1.078       .  S
C4            C5   1.385       .  A
C4            H7   1.084       .  S
C5         C1369   1.490       .  S
N8           C12   1.375   1_554  A
N8            C9   1.371       .  A
N8          C740   1.482       .  S
C9           C10   1.391       .  A
C9         C1333   1.526       .  S
C10          C11   1.370       .  A
C10          H13   1.083       .  S
C11          C12   1.386   1_554  A
C11          H14   1.082   1_554  S
C12        C1345   1.513       .  S
N15          C19   1.354       .  A
N15          C16   1.356   1_556  A
N15         C709   1.450       .  S
C16          C17   1.383   1_554  A
C16        C1309   1.479       .  S
C17          C18   1.369       .  A
C17          H20   1.081       .  S
C18          C19   1.393       .  A
C18          H21   1.083       .  S
C19        C1321   1.495       .  S
N22          C26   1.380   1_545  A
N22          C23   1.353       .  A
N22         C744   1.457       .  S
C23          C24   1.369       .  A
C23        C1297   1.458       .  S
C24          C25   1.349       .  A
C24          H27   1.081       .  S
C25          C26   1.391   1_545  A
C25          H28   1.083       .  S
C26        C1288   1.507       .  S
N29          C33   1.378       .  A
N29          C30   1.376       .  A
N29         C745   1.492       .  S
C30          C31   1.394       .  A
C30        C1264   1.533       .  S
C31          C32   1.368       .  A
C31          H34   1.079       .  S
C32          C33   1.395       .  A
C32          H35   1.081       .  S
C33        C1273   1.517       .  S
N36          C40   1.375       .  A
N36          C37   1.353       .  A
N36         C710   1.453       .  S
C37          C38   1.380       .  A
C37        C1237   1.453       .  S
C38          C39   1.363       .  A
C38          H41   1.083       .  S
C39          C40   1.391       .  A
C39          H42   1.081       .  S
C40        C1249   1.508       .  S
N43          C47   1.352       .  A
N43          C44   1.336       .  A
N43         C741   1.422       .  S
C44          C45   1.376       .  A
C44        C1225   1.440       .  S
C45          C46   1.362       .  A
C45          H48   1.083       .  S
C46          C47   1.388       .  A
C46          H49   1.081       .  S
C47        C1213   1.472   1_545  S
N50          C54   1.384       .  A
N50          C51   1.377       .  A
N50         C711   1.488       .  S
C51          C52   1.393       .  A
C51        C1201   1.526       .  S
C52          C53   1.360       .  A
C52          H55   1.077       .  S
C53          C54   1.390       .  A
C53          H56   1.081       .  S
C54        C1192   1.514   1_655  S
N57          C61   1.374       .  A
N57          C58   1.366   1_565  A
N57         C743   1.478       .  S
C58          C59   1.381       .  A
C58        C1177   1.476       .  S
C59          C60   1.364   1_545  A
C59          H62   1.082       .  S
C60          C61   1.392       .  A
C60          H63   1.079       .  S
C61        C1165   1.533       .  S
N64          C68   1.377       .  A
N64          C65   1.380       .  A
N64         C746   1.496       .  S
C65          C66   1.391       .  A
C65        C1144   1.530       .  S
C66          C67   1.367       .  A
C66          H69   1.078       .  S
C67          C68   1.391       .  A
C67          H70   1.081       .  S
C68        C1153   1.527       .  S
Zr71         O72   2.438       .  S
Zr71         O73   2.417       .  S
Zr71         O74   2.399       .  S
Zr71         O77   2.388       .  S
Zr71         O79   2.376       .  S
Zr71         O80   2.403       .  S
Zr71         O81   2.402       .  S
Zr71         O82   2.403       .  S
O72         H128   0.989       .  S
O72         H136   0.990       .  S
O73          C93   1.282       .  A
O74          C95   1.269       .  A
O75         Zr85   2.502       .  S
O75          C94   1.292       .  A
O76         Zr84   2.512       .  S
O76          C95   1.296       .  A
O77          C94   1.265       .  A
O78         Zr86   2.415       .  S
O78          C93   1.281       .  A
O79         Zr84   2.388       .  S
O79         Zr86   2.357       .  S
O80         Zr85   2.429       .  S
O80         Zr86   2.363       .  S
O80         H115   0.964       .  S
O81         Zr84   2.412       .  S
O81        Zr101   2.394       .  S
O81         H118   0.966       .  S
O82         Zr85   2.422       .  S
O82        Zr101   2.396       .  S
Zr83        O108   2.436       .  S
Zr83        O102   2.408       .  S
Zr83        O110   2.390       .  S
Zr83         O98   2.385       .  S
Zr83         O89   2.393       .  S
Zr83         O90   2.418       .  S
Zr83         O91   2.382       .  S
Zr83         O92   2.398       .  S
Zr84        O103   2.436       .  S
Zr84         O96   2.433       .  S
Zr84         O97   2.515       .  S
Zr84         O90   2.429       .  S
Zr84         O91   2.394       .  S
Zr85         O87   2.435       .  S
Zr85        O109   2.434       .  S
Zr85        O111   2.529       .  S
Zr85         O89   2.415       .  S
Zr85         O92   2.407       .  S
Zr86        O112   2.435       .  S
Zr86        O113   2.438       .  S
Zr86         O88   2.437       .  S
Zr86         O89   2.391       .  S
Zr86         O90   2.378       .  S
O87         H124   0.990       .  S
O88         H119   0.990       .  S
O88         H133   0.990       .  S
O90         H116   0.967       .  S
O91        Zr101   2.356       .  S
O92        Zr101   2.368       .  S
O92         H117   0.964       .  S
C93        C1105   1.480       .  S
C94        C1081   1.503       .  S
C95        C1096   1.511       .  S
O96         H132   0.990       .  S
O97          C99   1.292       .  A
O98          C99   1.261       .  A
C99        C1117   1.495       .  S
O100       Zr101   2.435       .  S
O100        H129   0.990       .  S
Zr101       O104   2.436       .  S
Zr101       O105   2.436       .  S
Zr101       O106   2.426       .  S
O102        C107   1.279       .  A
O103        H120   0.990       .  S
O103        H135   0.990       .  S
O104        H121   0.990       .  S
O105        H125   0.990       .  S
O105        H134   0.990       .  S
O106        C107   1.285       .  A
C107       C1129   1.478       .  S
O108        H127   0.990       .  S
O108        H131   0.988       .  S
O109        H123   0.990       .  S
O109        H130   0.990       .  S
O110        C114   1.270       .  A
O111        C114   1.293       .  A
O112        H122   0.990       .  S
O113        H126   0.990       .  S
C114       C1156   1.522       .  S
N137        C141   1.377       .  A
N137        C138   1.356   1_565  A
N137        C742   1.470       .  S
C138        C139   1.379       .  A
C138       C1132   1.459       .  S
C139        C140   1.360   1_545  A
C139        H142   1.078       .  S
C140        C141   1.391       .  A
C140        H143   1.077       .  S
C141       C1069   1.538       .  S
Zr144       O145   2.439       .  S
Zr144       O146   2.417       .  S
Zr144       O147   2.398       .  S
Zr144       O150   2.403       .  S
Zr144       O152   2.387       .  S
Zr144       O153   2.394       .  S
Zr144       O154   2.410       .  S
Zr144       O155   2.396       .  S
O145        H201   0.988       .  S
O145        H209   0.990       .  S
O146        C166   1.283       .  A
O147        C168   1.269       .  A
O148       Zr158   2.510       .  S
O148        C167   1.295       .  A
O149       Zr157   2.478       .  S
O149        C168   1.290       .  A
O150        C167   1.270       .  A
O151       Zr159   2.430       .  S
O151        C166   1.283       .  A
O152       Zr157   2.402       .  S
O152       Zr159   2.359       .  S
O153       Zr158   2.407       .  S
O153       Zr159   2.351       .  S
O153        H188   0.962       .  S
O154       Zr157   2.425       .  S
O154       Zr174   2.376       .  S
O154        H191   0.966       .  S
O155       Zr158   2.410       .  S
O155       Zr174   2.393       .  S
Zr156       O181   2.437       .  S
Zr156       O175   2.416       .  S
Zr156       O183   2.390       .  S
Zr156       O171   2.408       .  S
Zr156       O162   2.406       .  S
Zr156       O163   2.404       .  S
Zr156       O164   2.375       .  S
Zr156       O165   2.407       .  S
Zr157       O176   2.437       .  S
Zr157       O169   2.433       .  S
Zr157       O170   2.507       .  S
Zr157       O163   2.411       .  S
Zr157       O164   2.379       .  S
Zr158       O160   2.435       .  S
Zr158       O182   2.434       .  S
Zr158       O184   2.483       .  S
Zr158       O162   2.429       .  S
Zr158       O165   2.428       .  S
Zr159       O185   2.437       .  S
Zr159       O186   2.433       .  S
Zr159       O161   2.436       .  S
Zr159       O162   2.394       .  S
Zr159       O163   2.398       .  S
O160        H197   0.990       .  S
O161        H192   0.990       .  S
O161        H206   0.990       .  S
O163        H189   0.966       .  S
O164       Zr174   2.361       .  S
O165       Zr174   2.361       .  S
O165        H190   0.965       .  S
C166       C1033   1.479       .  S
C167       C1045   1.515       .  S
C168       C1057   1.489       .  S
O169        H205   0.990       .  S
O170        C172   1.296       .  A
O171        C172   1.270       .  A
C172       C1072   1.507       .  S
O173       Zr174   2.437       .  S
O173        H202   0.990       .  S
Zr174       O177   2.435       .  S
Zr174       O178   2.439       .  S
Zr174       O179   2.402       .  S
O175        C180   1.281       .  A
O176        H193   0.990       .  S
O176        H208   0.990       .  S
O177        H194   0.990       .  S
O178        H198   0.990       .  S
O178        H207   0.990       .  S
O179        C180   1.280       .  A
C180       C1312   1.477       .  S
O181        H200   0.990       .  S
O181        H204   0.990       .  S
O182        H196   0.990       .  S
O182        H203   0.990       .  S
O183        C187   1.266       .  A
O184        C187   1.285       .  A
O185        H195   0.990       .  S
O186        H199   0.990       .  S
C187       C1189   1.493       .  S
Zr210       O211   2.440       .  S
Zr210       O212   2.420       .  S
Zr210       O213   2.386       .  S
Zr210       O216   2.402       .  S
Zr210       O218   2.383       .  S
Zr210       O219   2.386       .  S
Zr210       O220   2.418       .  S
Zr210       O221   2.398       .  S
O211        H267   0.989       .  S
O211        H275   0.990       .  S
O212        C232   1.281       .  A
O213        C234   1.264       .  A
O214       Zr224   2.510       .  S
O214        C233   1.297       .  A
O215       Zr223   2.527       .  S
O215        C234   1.294       .  A
O216        C233   1.273       .  A
O217       Zr225   2.428       .  S
O217        C232   1.283       .  A
O218       Zr223   2.400       .  S
O218       Zr225   2.374       .  S
O219       Zr224   2.403       .  S
O219       Zr225   2.365       .  S
O219        H254   0.964       .  S
O220       Zr223   2.417       .  S
O220       Zr240   2.395       .  S
O220        H257   0.966       .  S
O221       Zr224   2.407       .  S
O221       Zr240   2.403       .  S
Zr222       O247   2.438       .  S
Zr222       O241   2.424       .  S
Zr222       O249   2.408       .  S
Zr222       O237   2.399       .  S
Zr222       O228   2.397       .  S
Zr222       O229   2.422       .  S
Zr222       O230   2.382       .  S
Zr222       O231   2.393       .  S
Zr223       O242   2.434       .  S
Zr223       O235   2.435       .  S
Zr223       O236   2.508       .  S
Zr223       O229   2.423       .  S
Zr223       O230   2.404       .  S
Zr224       O226   2.434       .  S
Zr224       O248   2.434       .  S
Zr224       O250   2.493       .  S
Zr224       O228   2.418       .  S
Zr224       O231   2.417       .  S
Zr225       O251   2.434       .  S
Zr225       O252   2.438       .  S
Zr225       O227   2.439       .  S
Zr225       O228   2.397       .  S
Zr225       O229   2.392       .  S
O226        H263   0.990       .  S
O227        H258   0.990       .  S
O227        H272   0.990       .  S
O229        H255   0.966       .  S
O230       Zr240   2.358       .  S
O231       Zr240   2.360       .  S
O231        H256   0.965       .  S
C232       C1180   1.491       .  S
C233       C1336   1.513       .  S
C234       C1141   1.501       .  S
O235        H271   0.990       .  S
O236        C238   1.293       .  A
O237        C238   1.266       .  A
C238        C997   1.504       .  S
O239       Zr240   2.435       .  S
O239        H268   0.990       .  S
Zr240       O243   2.435       .  S
Zr240       O244   2.438       .  S
Zr240       O245   2.448       .  S
O241        C246   1.284       .  A
O242        H259   0.990       .  S
O242        H274   0.990       .  S
O243        H260   0.990       .  S
O244        H264   0.990       .  S
O244        H273   0.990       .  S
O245        C246   1.286       .  A
C246       C1012   1.496       .  S
O247        H266   0.990       .  S
O247        H270   0.989       .  S
O248        H262   0.990       .  S
O248        H269   0.990       .  S
O249        C253   1.274       .  A
O250        C253   1.293       .  A
O251        H261   0.990       .  S
O252        H265   0.990       .  S
C253       C1021   1.505       .  S
Zr276       O277   2.435       .  S
Zr276       O278   2.398       .  S
Zr276       O279   2.393       .  S
Zr276       O282   2.412       .  S
Zr276       O284   2.380       .  S
Zr276       O285   2.386       .  S
Zr276       O286   2.411       .  S
Zr276       O287   2.387       .  S
O277        H333   0.988       .  S
O277        H341   0.990       .  S
O278        C298   1.278       .  A
O279        C300   1.266       .  A
O280       Zr290   2.486       .  S
O280        C299   1.294       .  A
O281       Zr289   2.551       .  S
O281        C300   1.297       .  A
O282        C299   1.276       .  A
O283       Zr291   2.455       .  S
O283        C298   1.289       .  A
O284       Zr289   2.384       .  S
O284       Zr291   2.346       .  S
O285       Zr290   2.408       .  S
O285       Zr291   2.357       .  S
O285        H320   0.965       .  S
O286       Zr289   2.426       .  S
O286       Zr306   2.379       .  S
O286        H323   0.966       .  S
O287       Zr290   2.418       .  S
O287       Zr306   2.397       .  S
Zr288       O313   2.439       .  S
Zr288       O307   2.423       .  S
Zr288       O315   2.409       .  S
Zr288       O303   2.397       .  S
Zr288       O294   2.396       .  S
Zr288       O295   2.415       .  S
Zr288       O296   2.385       .  S
Zr288       O297   2.392       .  S
Zr289       O308   2.436       .  S
Zr289       O301   2.436       .  S
Zr289       O302   2.520       .  S
Zr289       O295   2.415       .  S
Zr289       O296   2.402       .  S
Zr290       O292   2.434       .  S
Zr290       O314   2.435       .  S
Zr290       O316   2.497       .  S
Zr290       O294   2.406       .  S
Zr290       O297   2.403       .  S
Zr291       O317   2.434       .  S
Zr291       O318   2.434       .  S
Zr291       O293   2.436       .  S
Zr291       O294   2.403       .  S
Zr291       O295   2.397       .  S
O292        H329   0.990       .  S
O293        H324   0.990       .  S
O293        H338   0.990       .  S
O295        H321   0.966       .  S
O296       Zr306   2.369       .  S
O297       Zr306   2.355       .  S
O297        H322   0.962       .  S
C298        C964   1.485       .  S
C299        C973   1.499       .  S
C300        C985   1.524       .  S
O301        H337   0.990       .  S
O302        C304   1.299       .  A
O303        C304   1.271       .  A
C304       C1204   1.509       .  S
O305       Zr306   2.437       .  S
O305        H334   0.990       .  S
Zr306       O309   2.435       .  S
Zr306       O310   2.436       .  S
Zr306       O311   2.419       .  S
O307        C312   1.282       .  A
O308        H325   0.990       .  S
O308        H340   0.990       .  S
O309        H326   0.990       .  S
O310        H330   0.990       .  S
O310        H339   0.990       .  S
O311        C312   1.283       .  A
C312       C1360   1.477       .  S
O313        H332   0.990       .  S
O313        H336   0.989       .  S
O314        H328   0.990       .  S
O314        H335   0.990       .  S
O315        C319   1.272       .  A
O316        C319   1.295       .  A
O317        H327   0.990       .  S
O318        H331   0.990       .  S
C319       C1168   1.506       .  S
N342        C346   1.386   1_554  A
N342        C343   1.385       .  A
N342        C739   1.509       .  S
C343        C344   1.394       .  A
C343       C1120   1.521       .  S
C344        C345   1.371   1_554  A
C344        H347   1.080       .  S
C345        C346   1.392       .  A
C345        H348   1.082       .  S
C346        C952   1.555       .  S
Zr349       O350   2.442       .  S
Zr349       O351   2.383       .  S
Zr349       O352   2.407       .  S
Zr349       O355   2.392       .  S
Zr349       O357   2.381       .  S
Zr349       O358   2.412       .  S
Zr349       O359   2.388       .  S
Zr349       O360   2.393       .  S
O350        H406   0.991       .  S
O350        H414   0.990       .  S
O351        C371   1.275       .  A
O352        C373   1.272       .  A
O353       Zr363   2.503       .  S
O353        C372   1.290       .  A
O354       Zr362   2.506       .  S
O354        C373   1.297       .  A
O355        C372   1.267       .  A
O356       Zr364   2.429       .  S
O356        C371   1.285       .  A
O357       Zr362   2.382       .  S
O357       Zr364   2.362       .  S
O358       Zr363   2.409       .  S
O358       Zr364   2.355       .  S
O358        H393   0.962       .  S
O359       Zr362   2.407       .  S
O359       Zr379   2.389       .  S
O359        H396   0.966       .  S
O360       Zr363   2.432       .  S
O360       Zr379   2.384       .  S
Zr361       O386   2.439       .  S
Zr361       O380   2.390       .  S
Zr361       O388   2.405       .  S
Zr361       O376   2.403       .  S
Zr361       O367   2.399       .  S
Zr361       O368   2.402       .  S
Zr361       O369   2.385       .  S
Zr361       O370   2.396       .  S
Zr362       O381   2.435       .  S
Zr362       O374   2.435       .  S
Zr362       O375   2.492       .  S
Zr362       O368   2.415       .  S
Zr362       O369   2.393       .  S
Zr363       O365   2.432       .  S
Zr363       O387   2.435       .  S
Zr363       O389   2.527       .  S
Zr363       O367   2.423       .  S
Zr363       O370   2.386       .  S
Zr364       O390   2.434       .  S
Zr364       O391   2.436       .  S
Zr364       O366   2.440       .  S
Zr364       O367   2.401       .  S
Zr364       O368   2.386       .  S
O365        H402   0.990       .  S
O366        H397   0.990       .  S
O366        H411   0.990       .  S
O368        H394   0.966       .  S
O369       Zr379   2.357       .  S
O370       Zr379   2.359       .  S
O370        H395   0.960       .  S
C371        C928   1.449       .  S
C372        C940   1.509       .  S
C373        C916   1.499       .  S
O374        H410   0.990       .  S
O375        C377   1.293       .  A
O376        C377   1.271       .  A
C377       C1276   1.494       .  S
O378       Zr379   2.435       .  S
O378        H407   0.990       .  S
Zr379       O382   2.435       .  S
Zr379       O383   2.435       .  S
Zr379       O384   2.413       .  S
O380        C385   1.275       .  A
O381        H398   0.990       .  S
O381        H413   0.990       .  S
O382        H399   0.990       .  S
O383        H403   0.990       .  S
O383        H412   0.990       .  S
O384        C385   1.284       .  A
C385       C1228   1.453       .  S
O386        H405   0.990       .  S
O386        H409   0.990       .  S
O387        H401   0.990       .  S
O387        H408   0.990       .  S
O388        C392   1.272       .  A
O389        C392   1.298       .  A
O390        H400   0.990       .  S
O391        H404   0.990       .  S
C392        C949   1.522       .  S
Zr415       O416   2.437       .  S
Zr415       O417   2.440       .  S
Zr415       O418   2.415       .  S
Zr415       O421   2.399       .  S
Zr415       O423   2.380       .  S
Zr415       O424   2.398       .  S
Zr415       O425   2.421       .  S
Zr415       O426   2.412       .  S
O416        H472   0.989       .  S
O416        H480   0.990       .  S
O417        C437   1.285       .  A
O418        C439   1.272       .  A
O419       Zr429   2.466       .  S
O419        C438   1.284       .  A
O420       Zr428   2.457       .  S
O420        C439   1.287       .  A
O421        C438   1.270       .  A
O422       Zr430   2.400       .  S
O422        C437   1.278       .  A
O423       Zr428   2.407       .  S
O423       Zr430   2.365       .  S
O424       Zr429   2.407       .  S
O424       Zr430   2.364       .  S
O424        H459   0.964       .  S
O425       Zr428   2.414       .  S
O425       Zr445   2.411       .  S
O425        H462   0.966       .  S
O426       Zr429   2.422       .  S
O426       Zr445   2.405       .  S
Zr427       O452   2.434       .  S
Zr427       O446   2.410       .  S
Zr427       O454   2.393       .  S
Zr427       O442   2.385       .  S
Zr427       O433   2.400       .  S
Zr427       O434   2.419       .  S
Zr427       O435   2.384       .  S
Zr427       O436   2.398       .  S
Zr428       O447   2.436       .  S
Zr428       O440   2.437       .  S
Zr428       O441   2.479       .  S
Zr428       O434   2.421       .  S
Zr428       O435   2.396       .  S
Zr429       O431   2.435       .  S
Zr429       O453   2.434       .  S
Zr429       O455   2.472       .  S
Zr429       O433   2.423       .  S
Zr429       O436   2.403       .  S
Zr430       O456   2.433       .  S
Zr430       O457   2.435       .  S
Zr430       O432   2.437       .  S
Zr430       O433   2.389       .  S
Zr430       O434   2.368       .  S
O431        H468   0.990       .  S
O432        H463   0.990       .  S
O432        H477   0.990       .  S
O434        H460   0.967       .  S
O435       Zr445   2.355       .  S
O436       Zr445   2.356       .  S
O436        H461   0.963       .  S
C437       C1216   1.474       .  S
C438       C1252   1.493       .  S
C439       C1324   1.491       .  S
O440        H476   0.990       .  S
O441        C443   1.284       .  A
O442        C443   1.261       .  A
C443        C889   1.481       .  S
O444       Zr445   2.435       .  S
O444        H473   0.990       .  S
Zr445       O448   2.436       .  S
Zr445       O449   2.436       .  S
Zr445       O450   2.456       .  S
O446        C451   1.281       .  A
O447        H464   0.990       .  S
O447        H479   0.990       .  S
O448        H465   0.990       .  S
O449        H469   0.990       .  S
O449        H478   0.990       .  S
O450        C451   1.290       .  A
C451        C904   1.480       .  S
O452        H471   0.989       .  S
O452        H475   0.989       .  S
O453        H467   0.990       .  S
O453        H474   0.990       .  S
O454        C458   1.269       .  A
O455        C458   1.284       .  A
O456        H466   0.989       .  S
O457        H470   0.990       .  S
C458        C877   1.491       .  S
Zr481       O482   2.439       .  S
Zr481       O483   2.395       .  S
Zr481       O484   2.387       .  S
Zr481       O487   2.392       .  S
Zr481       O489   2.386       .  S
Zr481       O490   2.400       .  S
Zr481       O491   2.406       .  S
Zr481       O492   2.393       .  S
O482        H538   0.990       .  S
O482        H546   0.990       .  S
O483        C503   1.276       .  A
O484        C505   1.268       .  A
O485       Zr495   2.502       .  S
O485        C504   1.291       .  A
O486       Zr494   2.532       .  S
O486        C505   1.299       .  A
O487        C504   1.267       .  A
O488       Zr496   2.434       .  S
O488        C503   1.286       .  A
O489       Zr494   2.395       .  S
O489       Zr496   2.369       .  S
O490       Zr495   2.417       .  S
O490       Zr496   2.355       .  S
O490        H525   0.963       .  S
O491       Zr494   2.412       .  S
O491       Zr511   2.376       .  S
O491        H528   0.966       .  S
O492       Zr495   2.428       .  S
O492       Zr511   2.390       .  S
Zr493       O518   2.438       .  S
Zr493       O512   2.430       .  S
Zr493       O520   2.394       .  S
Zr493       O508   2.405       .  S
Zr493       O499   2.403       .  S
Zr493       O500   2.413       .  S
Zr493       O501   2.389       .  S
Zr493       O502   2.398       .  S
Zr494       O513   2.434       .  S
Zr494       O506   2.436       .  S
Zr494       O507   2.522       .  S
Zr494       O500   2.416       .  S
Zr494       O501   2.402       .  S
Zr495       O497   2.434       .  S
Zr495       O519   2.435       .  S
Zr495       O521   2.525       .  S
Zr495       O499   2.416       .  S
Zr495       O502   2.397       .  S
Zr496       O522   2.436       .  S
Zr496       O523   2.435       .  S
Zr496       O498   2.435       .  S
Zr496       O499   2.399       .  S
Zr496       O500   2.394       .  S
O497        H534   0.990       .  S
O498        H529   0.990       .  S
O498        H543   0.990       .  S
O500        H526   0.966       .  S
O501       Zr511   2.368       .  S
O502       Zr511   2.362       .  S
O502        H527   0.962       .  S
C503       C1300   1.476       .  S
C504       C1261   1.510       .  S
C505       C1348   1.509       .  S
O506        H542   0.990       .  S
O507        C509   1.299       .  A
O508        C509   1.267       .  A
C509        C853   1.510       .  S
O510       Zr511   2.436       .  S
O510        H539   0.990       .  S
Zr511       O514   2.436       .  S
Zr511       O515   2.438       .  S
Zr511       O516   2.397       .  S
O512        C517   1.283       .  A
O513        H530   0.990       .  S
O513        H545   0.990       .  S
O514        H531   0.990       .  S
O515        H535   0.990       .  S
O515        H544   0.990       .  S
O516        C517   1.280       .  A
C517        C868   1.468       .  S
O518        H537   0.990       .  S
O518        H541   0.990       .  S
O519        H533   0.990       .  S
O519        H540   0.990       .  S
O520        C524   1.270       .  A
O521        C524   1.294       .  A
O522        H532   0.990       .  S
O523        H536   0.990       .  S
C524        C841   1.519       .  S
Zr547       O548   2.437       .  S
Zr547       O549   2.408       .  S
Zr547       O550   2.386       .  S
Zr547       O553   2.385       .  S
Zr547       O555   2.388       .  S
Zr547       O556   2.398       .  S
Zr547       O557   2.419       .  S
Zr547       O558   2.395       .  S
O548        H604   0.989       .  S
O548        H612   0.989       .  S
O549        C569   1.279       .  A
O550        C571   1.259       .  A
O551       Zr561   2.512       .  S
O551        C570   1.290       .  A
O552       Zr560   2.501       .  S
O552        C571   1.287       .  A
O553        C570   1.269       .  A
O554       Zr562   2.411       .  S
O554        C569   1.282       .  A
O555       Zr560   2.402       .  S
O555       Zr562   2.356       .  S
O556       Zr561   2.388       .  S
O556       Zr562   2.369       .  S
O556        H591   0.963       .  S
O557       Zr560   2.429       .  S
O557       Zr577   2.383       .  S
O557        H594   0.967       .  S
O558       Zr561   2.414       .  S
O558       Zr577   2.382       .  S
Zr559       O584   2.436       .  S
Zr559       O578   2.407       .  S
Zr559       O586   2.390       .  S
Zr559       O574   2.385       .  S
Zr559       O565   2.396       .  S
Zr559       O566   2.406       .  S
Zr559       O567   2.377       .  S
Zr559       O568   2.401       .  S
Zr560       O579   2.436       .  S
Zr560       O572   2.435       .  S
Zr560       O573   2.506       .  S
Zr560       O566   2.411       .  S
Zr560       O567   2.388       .  S
Zr561       O563   2.435       .  S
Zr561       O585   2.434       .  S
Zr561       O587   2.472       .  S
Zr561       O565   2.433       .  S
Zr561       O568   2.424       .  S
Zr562       O588   2.435       .  S
Zr562       O589   2.436       .  S
Zr562       O564   2.438       .  S
Zr562       O565   2.393       .  S
Zr562       O566   2.392       .  S
O563        H600   0.990       .  S
O564        H595   0.990       .  S
O564        H609   0.990       .  S
O566        H592   0.966       .  S
O567       Zr577   2.367       .  S
O568       Zr577   2.360       .  S
O568        H593   0.964       .  S
C569       C1240   1.461       .  S
C570       C1285   1.510       .  S
C571       C1372   1.486       .  S
O572        H608   0.990       .  S
O573        C575   1.294       .  A
O574        C575   1.267       .  A
C575        C817   1.501       .  S
O576       Zr577   2.435       .  S
O576        H605   0.990       .  S
Zr577       O580   2.434       .  S
Zr577       O581   2.439       .  S
Zr577       O582   2.402       .  S
O578        C583   1.279       .  A
O579        H596   0.990       .  S
O579        H611   0.990       .  S
O580        H597   0.990       .  S
O581        H601   0.990       .  S
O581        H610   0.990       .  S
O582        C583   1.279       .  A
C583        C829   1.472       .  S
O584        H603   0.989       .  S
O584        H607   0.989       .  S
O585        H599   0.990       .  S
O585        H606   0.990       .  S
O586        C590   1.266       .  A
O587        C590   1.282       .  A
O588        H598   0.990       .  S
O589        H602   0.990       .  S
C590        C805   1.488       .  S
N613        C617   1.371       .  A
N613        C614   1.352       .  A
N613        C762   1.437       .  S
C614        C615   1.383       .  A
C614        C832   1.460       .  S
C615        C616   1.363       .  A
C615        H618   1.078       .  S
C616        C617   1.387       .  A
C616        H619   1.083       .  S
C617        C892   1.490       .  S
N620        C624   1.360       .  A
N620        C621   1.344       .  A
N620        C764   1.433       .  S
C621        C622   1.379       .  A
C621        C925   1.460       .  S
C622        C623   1.364       .  A
C622        H625   1.083       .  S
C623        C624   1.391       .  A
C623        H626   1.083       .  S
C624        C901   1.481       .  S
N627        C631   1.382       .  A
N627        C628   1.376       .  A
N627        C763   1.504       .  S
C628        C629   1.390       .  A
C628        C856   1.538       .  S
C629        C630   1.371       .  A
C629        H632   1.080       .  S
C630        C631   1.396       .  A
C630        H633   1.080       .  S
C631        C937   1.526       .  S
N634        C638   1.381       .  A
N634        C635   1.346       .  A
N634        C765   1.452       .  S
C635        C636   1.375       .  A
C635        C865   1.453       .  S
C636        C637   1.355       .  A
C636        H639   1.082       .  S
C637        C638   1.393       .  A
C637        H640   1.077       .  S
C638        C820   1.519       .  S
N641        C645   1.370       .  A
N641        C642   1.374       .  A
N641        C793   1.481       .  S
C642        C643   1.392       .  A
C642       C1024   1.528       .  S
C643        C644   1.369       .  A
C643        H646   1.078       .  S
C644        C645   1.388       .  A
C644        H647   1.081       .  S
C645       C1093   1.526       .  S
N648        C652   1.388       .  A
N648        C649   1.366       .  A
N648        C800   1.471       .  S
C649        C650   1.368       .  A
C649       C1009   1.476       .  S
C650        C651   1.346       .  A
C650        H653   1.073       .  S
C651        C652   1.393       .  A
C651        H654   1.079       .  S
C652        C988   1.527       .  S
N655        C659   1.373       .  A
N655        C656   1.375       .  A
N655        C794   1.476       .  S
C656        C657   1.393       .  A
C656        C976   1.522       .  S
C657        C658   1.363       .  A
C657        H660   1.076       .  S
C658        C659   1.391       .  A
C658        H661   1.080       .  S
C659       C1060   1.510       .  S
N662        C666   1.377       .  A
N662        C663   1.355       .  A
N662        C799   1.469       .  S
C663        C664   1.379       .  A
C663       C1108   1.457       .  S
C664        C665   1.362       .  A
C664        H667   1.082       .  S
C665        C666   1.393       .  A
C665        H668   1.082       .  S
C666       C1048   1.533       .  S
N669        C673   1.378       .  A
N669        C670   1.357       .  A
N669        C797   1.451       .  S
C670        C671   1.374       .  A
C670        C961   1.475       .  S
C671        C672   1.353       .  A
C671        H674   1.080       .  S
C672        C673   1.385       .  A
C672        H675   1.084       .  S
C673        C808   1.490       .  S
N676        C680   1.384       .  A
N676        C677   1.369       .  A
N676        C796   1.495       .  S
C677        C678   1.390       .  A
C677       C1000   1.522       .  S
C678        C679   1.370       .  A
C678        H681   1.082       .  S
C679        C680   1.392       .  A
C679        H682   1.081       .  S
C680        C844   1.528       .  S
N683        C687   1.376       .  A
N683        C684   1.356       .  A
N683        C798   1.454       .  S
C684        C685   1.374       .  A
C684       C1036   1.462       .  S
C685        C686   1.347       .  A
C685        H688   1.082       .  S
C686        C687   1.384       .  A
C686        H689   1.084       .  S
C687        C880   1.484       .  S
N690        C694   1.381       .  A
N690        C691   1.379       .  A
N690        C795   1.486       .  S
C691        C692   1.391       .  A
C691       C1084   1.525       .  S
C692        C693   1.359       .  A
C692        H695   1.079       .  S
C693        C694   1.391       .  A
C693        H696   1.077       .  S
C694        C913   1.520       .  S
O697       Zr733   2.524   1_565  S
O697        C708   1.309       .  A
O698       Zr732   2.416   1_566  S
O698        C709   1.292       .  A
O699       Zr705   2.534       .  S
O699        C710   1.309       .  A
O700       Zr705   2.409   1_554  S
O700        C711   1.291       .  A
O701       Zr735   2.592   1_565  S
O701        C711   1.322       .  A
O702       Zr734   2.377   1_565  S
O702        C710   1.284       .  A
O703       Zr705   2.469   1_455  S
O703        C709   1.295       .  A
O704       Zr705   2.392       .  S
O704        C708   1.284       .  A
Zr705       O706   2.358   1_556  S
Zr705       O707   2.339       .  S
Zr705       O715   2.394   1_556  S
Zr705       O713   2.283       .  S
O706       Zr732   2.327   1_665  S
O706       Zr735   2.372   1_565  S
O707       Zr733   2.331   1_565  S
O707       Zr734   2.319   1_565  S
H712        O713   0.960       .  S
O713       Zr732   2.324   1_666  S
O713       Zr734   2.336   1_565  S
H714        O715   0.966       .  S
O715       Zr733   2.354   1_564  S
O715       Zr735   2.379   1_565  S
O716       Zr732   2.424       .  S
O716        C739   1.292       .  A
O717       Zr733   2.491   1_554  S
O717        C740   1.308       .  A
O718       Zr734   2.411       .  S
O718        C741   1.289   1_655  A
O719       Zr735   2.498   1_565  S
O719        C742   1.300   1_655  A
O720       Zr735   2.540   1_565  S
O720        C743   1.309       .  A
O721       Zr734   2.495       .  S
O721        C744   1.302       .  A
O722       Zr736   2.581   1_556  S
O722        C745   1.317       .  A
O723       Zr736   2.502       .  S
O723        C746   1.312       .  A
O724       Zr734   2.403       .  S
O724        C745   1.289       .  A
O725       Zr735   2.553       .  S
O725        C746   1.314       .  A
O726       Zr732   2.454   1_556  S
O726        C741   1.293       .  A
O727       Zr733   2.451       .  S
O727        C744   1.293       .  A
O728       Zr733   2.424   1_564  S
O728        C743   1.294       .  A
O729       Zr732   2.441       .  S
O729        C742   1.298   1_545  A
O730       Zr736   2.608       .  S
O730        C739   1.323   1_655  A
O731       Zr736   2.533       .  S
O731        C740   1.311       .  A
Zr732       O738   2.351   1_454  S
Zr732       O750   2.346   1_455  S
Zr733       O737   2.370   1_556  S
Zr733       O748   2.378       .  S
Zr734       O738   2.357       .  S
Zr734       O748   2.320       .  S
Zr735       O737   2.382       .  S
Zr735       O750   2.413       .  S
Zr736       O737   2.420       .  S
Zr736       O738   2.339   1_554  S
Zr736       O750   2.397       .  S
Zr736       O748   2.396   1_554  S
H747        O748   0.966       .  S
H749        O750   0.966       .  S
O751       Zr787   2.510       .  S
O751        C762   1.304       .  A
O752       Zr786   2.592       .  S
O752        C763   1.320       .  A
O753       Zr759   2.459       .  S
O753        C764   1.296       .  A
O754       Zr759   2.441       .  S
O754        C765   1.296       .  A
O755       Zr789   2.515       .  S
O755        C765   1.306       .  A
O756       Zr788   2.402       .  S
O756        C764   1.283       .  A
O757       Zr759   2.425       .  S
O757        C763   1.293       .  A
O758       Zr759   2.347       .  S
O758        C762   1.277       .  A
Zr759       O760   2.339       .  S
Zr759       O761   2.324       .  S
Zr759       O769   2.349       .  S
Zr759       O767   2.310       .  S
O760       Zr786   2.361       .  S
O760       Zr789   2.383       .  S
O761       Zr787   2.312       .  S
O761       Zr788   2.324       .  S
H766        O767   0.963       .  S
O767       Zr786   2.366       .  S
O767       Zr788   2.386       .  S
H768        O769   0.962       .  S
O769       Zr787   2.303       .  S
O769       Zr789   2.357       .  S
O770       Zr786   2.522       .  S
O770        C793   1.309       .  A
O771       Zr787   2.394       .  S
O771        C794   1.288       .  A
O772       Zr788   2.430       .  S
O772        C795   1.296       .  A
O773       Zr789   2.451       .  S
O773        C796   1.298       .  A
O774       Zr789   2.488       .  S
O774        C797   1.302       .  A
O775       Zr788   2.504       .  S
O775        C798   1.304       .  A
O776       Zr790   2.500       .  S
O776        C799   1.300       .  A
O777       Zr790   2.443       .  S
O777        C800   1.296       .  A
O778       Zr788   2.443       .  S
O778        C799   1.298       .  A
O779       Zr789   2.532       .  S
O779        C800   1.310       .  A
O780       Zr786   2.586       .  S
O780        C795   1.321       .  A
O781       Zr787   2.431       .  S
O781        C798   1.291       .  A
O782       Zr787   2.440       .  S
O782        C797   1.294       .  A
O783       Zr786   2.584       .  S
O783        C796   1.321       .  A
O784       Zr790   2.505       .  S
O784        C793   1.309       .  A
O785       Zr790   2.566       .  S
O785        C794   1.316       .  A
Zr786       O792   2.420       .  S
Zr786       O804   2.415       .  S
Zr787       O791   2.366       .  S
Zr787       O802   2.364       .  S
Zr788       O792   2.355       .  S
Zr788       O802   2.315       .  S
Zr789       O791   2.346       .  S
Zr789       O804   2.381       .  S
Zr790       O791   2.362       .  S
Zr790       O792   2.370       .  S
Zr790       O804   2.400       .  S
Zr790       O802   2.344       .  S
H801        O802   0.963       .  S
H803        O804   0.966       .  S
C805        C806   1.403       .  A
C805        C810   1.411       .  A
C806        C807   1.401       .  A
C806        H811   1.084       .  S
C807        C808   1.410       .  A
C807        O812   1.369       .  S
C808        C809   1.410       .  A
C809        C810   1.408       .  A
C809        H813   1.084       .  S
C810        O814   1.370       .  S
O812        H816   0.992       .  S
O814        H815   0.992       .  S
C817        C818   1.399       .  A
C817        C822   1.418       .  A
C818        C819   1.408       .  A
C818        H823   1.084       .  S
C819        C820   1.427       .  A
C819        O824   1.370       .  S
C820        C821   1.406       .  A
C821        C822   1.407       .  A
C821        H825   1.083       .  S
C822        O826   1.371       .  S
O824        H828   0.992       .  S
O826        H827   0.992       .  S
C829        C830   1.408       .  A
C829        C834   1.412       .  A
C830        C831   1.398       .  A
C830        H835   1.083       .  S
C831        C832   1.402       .  A
C831        O836   1.370       .  S
C832        C833   1.396       .  A
C833        C834   1.384       .  A
C833        H837   1.084       .  S
C834        O838   1.372       .  S
O836        H840   0.991       .  S
O838        H839   0.992       .  S
C841        C842   1.408       .  A
C841        C846   1.419       .  A
C842        C843   1.418       .  A
C842        H847   1.083       .  S
C843        C844   1.425       .  A
C843        O848   1.372       .  S
C844        C845   1.406       .  A
C845        C846   1.408       .  A
C845        H849   1.079       .  S
C846        O850   1.370       .  S
O848        H852   0.990       .  S
O850        H851   0.992       .  S
C853        C854   1.421       .  A
C853        C858   1.403       .  A
C854        C855   1.419       .  A
C854        H859   1.082       .  S
C855        C856   1.407       .  A
C855        O860   1.371       .  S
C856        C857   1.426       .  A
C857        C858   1.404       .  A
C857        H861   1.082       .  S
C858        O862   1.371       .  S
O860        H864   0.991       .  S
O862        H863   0.992       .  S
C865        C866   1.398       .  A
C865        C870   1.400       .  A
C866        C867   1.397       .  A
C866        H871   1.084       .  S
C867        C868   1.410       .  A
C867        O872   1.369       .  S
C868        C869   1.404       .  A
C869        C870   1.385       .  A
C869        H873   1.084       .  S
C870        O874   1.373       .  S
O872        H876   0.986       .  S
O874        H875   0.992       .  S
C877        C878   1.407       .  A
C877        C882   1.410       .  A
C878        C879   1.408       .  A
C878        H883   1.083       .  S
C879        C880   1.414       .  A
C879        O884   1.372       .  S
C880        C881   1.405       .  A
C881        C882   1.401       .  A
C881        H885   1.084       .  S
C882        O886   1.371       .  S
O884        H888   0.992       .  S
O886        H887   0.992       .  S
C889        C890   1.405       .  A
C889        C894   1.408       .  A
C890        C891   1.387       .  A
C890        H895   1.084       .  S
C891        C892   1.408       .  A
C891        O896   1.370       .  S
C892        C893   1.413       .  A
C893        C894   1.409       .  A
C893        H897   1.084       .  S
C894        O898   1.371       .  S
O896        H900   0.992       .  S
O898        H899   0.992       .  S
C901        C902   1.407       .  A
C901        C906   1.408       .  A
C902        C903   1.400       .  A
C902        H907   1.084       .  S
C903        C904   1.409       .  A
C903        O908   1.371       .  S
C904        C905   1.405       .  A
C905        C906   1.395       .  A
C905        H909   1.083       .  S
C906        O910   1.367       .  S
O908        H912   0.992       .  S
O910        H911   0.990       .  S
C913        C914   1.405       .  A
C913        C918   1.426       .  A
C914        C915   1.410       .  A
C914        H919   1.079       .  S
C915        C916   1.417       .  A
C915        O920   1.372       .  S
C916        C917   1.400       .  A
C917        C918   1.405       .  A
C917        H921   1.084       .  S
C918        O922   1.369       .  S
O920        H924   0.992       .  S
O922        H923   0.989       .  S
C925        C926   1.398       .  A
C925        C930   1.403       .  A
C926        C927   1.389       .  A
C926        H931   1.084       .  S
C927        C928   1.405       .  A
C927        O932   1.372       .  S
C928        C929   1.400       .  A
C929        C930   1.391       .  A
C929        H933   1.084       .  S
C930        O934   1.370       .  S
O932        H936   0.992       .  S
O934        H935   0.992       .  S
C937        C938   1.420       .  A
C937        C942   1.412       .  A
C938        C939   1.410       .  A
C938        H943   1.080       .  S
C939        C940   1.409       .  A
C939        O944   1.371       .  S
C940        C941   1.412       .  A
C941        C942   1.408       .  A
C941        H945   1.080       .  S
C942        O946   1.371       .  S
O944        H948   0.992       .  S
O946        H947   0.992       .  S
C949        C950   1.419       .  A
C949        C954   1.406       .  A
C950        C951   1.425       .  A
C950        H955   1.082       .  S
C951        C952   1.415       .  A
C951        O956   1.373       .  S
C952        C953   1.429       .  A
C953        C954   1.409       .  A
C953        H957   1.079       .  S
C954        O958   1.372       .  S
O956        H960   0.991       .  S
O958        H959   0.992       .  S
C961        C962   1.398       .  A
C961        C966   1.404       .  A
C962        C963   1.401       .  A
C962        H967   1.084       .  S
C963        C964   1.417       .  A
C963        O968   1.373       .  S
C964        C965   1.405       .  A
C965        C966   1.402       .  A
C965        H969   1.083       .  S
C966        O970   1.368       .  S
O968        H972   0.991       .  S
O970        H971   0.991       .  S
C973        C974   1.401       .  A
C973        C978   1.413       .  A
C974        C975   1.406       .  A
C974        H979   1.083       .  S
C975        C976   1.429       .  A
C975        O980   1.368       .  S
C976        C977   1.405       .  A
C977        C978   1.408       .  A
C977        H981   1.079       .  S
C978        O982   1.374       .  S
O980        H984   0.992       .  S
O982        H983   0.992       .  S
C985        C986   1.406       .  A
C985        C990   1.420       .  A
C986        C987   1.398       .  A
C986        H991   1.081       .  S
C987        C988   1.418       .  A
C987        O992   1.376       .  S
C988        C989   1.419       .  A
C989        C990   1.433       .  A
C989        H993   1.083       .  S
C990        O994   1.370       .  S
O992        H996   0.992       .  S
O994        H995   0.992       .  S
C997        C998   1.415       .  A
C997       C1002   1.406       .  A
C998        C999   1.410       .  A
C998       H1003   1.082       .  S
C999       C1000   1.406       .  A
C999       O1004   1.371       .  S
C1000      C1001   1.422       .  A
C1001      C1002   1.404       .  A
C1001      H1005   1.081       .  S
C1002      O1006   1.371       .  S
O1004      H1008   0.992       .  S
O1006      H1007   0.992       .  S
C1009      C1010   1.404       .  A
C1009      C1014   1.405       .  A
C1010      C1011   1.408       .  A
C1010      H1015   1.084       .  S
C1011      C1012   1.416       .  A
C1011      O1016   1.371       .  S
C1012      C1013   1.408       .  A
C1013      C1014   1.395       .  A
C1013      H1017   1.083       .  S
C1014      O1018   1.371       .  S
O1016      H1020   0.992       .  S
O1018      H1019   0.990       .  S
C1021      C1022   1.402       .  A
C1021      C1026   1.415       .  A
C1022      C1023   1.413       .  A
C1022      H1027   1.083       .  S
C1023      C1024   1.429       .  A
C1023      O1028   1.371       .  S
C1024      C1025   1.408       .  A
C1025      C1026   1.406       .  A
C1025      H1029   1.080       .  S
C1026      O1030   1.370       .  S
O1028      H1032   0.993       .  S
O1030      H1031   0.992       .  S
C1033      C1034   1.404       .  A
C1033      C1038   1.414       .  A
C1034      C1035   1.398       .  A
C1034      H1039   1.081       .  S
C1035      C1036   1.401       .  A
C1035      O1040   1.371       .  S
C1036      C1037   1.401       .  A
C1037      C1038   1.401       .  A
C1037      H1041   1.084       .  S
C1038      O1042   1.372       .  S
O1040      H1044   0.991       .  S
O1042      H1043   0.992       .  S
C1045      C1046   1.418       .  A
C1045      C1050   1.407       .  A
C1046      C1047   1.418       .  A
C1046      H1051   1.080       .  S
C1047      C1048   1.410       .  A
C1047      O1052   1.371       .  S
C1048      C1049   1.423       .  A
C1049      C1050   1.407       .  A
C1049      H1053   1.080       .  S
C1050      O1054   1.372       .  S
O1052      H1056   0.991       .  S
O1054      H1055   0.992       .  S
C1057      C1058   1.409       .  A
C1057      C1062   1.404       .  A
C1058      C1059   1.397       .  A
C1058      H1063   1.079       .  S
C1059      C1060   1.408       .  A
C1059      O1064   1.372       .  S
C1060      C1061   1.420       .  A
C1061      C1062   1.401       .  A
C1061      H1065   1.078       .  S
C1062      O1066   1.371       .  S
O1064      H1068   0.991       .  S
O1066      H1067   0.992       .  S
C1069      C1070   1.411       .  A
C1069      C1074   1.436       .  A
C1070      C1071   1.418       .  A
C1070      H1075   1.083       .  S
C1071      C1072   1.419       .  A
C1071      O1076   1.371       .  S
C1072      C1073   1.395       .  A
C1073      C1074   1.404       .  A
C1073      H1077   1.084       .  S
C1074      O1078   1.369       .  S
O1076      H1080   0.992       .  S
O1078      H1079   0.992       .  S
C1081      C1082   1.414       .  A
C1081      C1086   1.406       .  A
C1082      C1083   1.412       .  A
C1082      H1087   1.083       .  S
C1083      C1084   1.413       .  A
C1083      O1088   1.370       .  S
C1084      C1085   1.420       .  A
C1085      C1086   1.403       .  A
C1085      H1089   1.078       .  S
C1086      O1090   1.371       .  S
O1088      H1092   0.992       .  S
O1090      H1091   0.992       .  S
C1093      C1094   1.421       .  A
C1093      C1098   1.410       .  A
C1094      C1095   1.407       .  A
C1094      H1099   1.079       .  S
C1095      C1096   1.407       .  A
C1095      O1100   1.371       .  S
C1096      C1097   1.416       .  A
C1097      C1098   1.415       .  A
C1097      H1101   1.081       .  S
C1098      O1102   1.374       .  S
O1100      H1104   0.992       .  S
O1102      H1103   0.991       .  S
C1105      C1106   1.408       .  A
C1105      C1110   1.415       .  A
C1106      C1107   1.393       .  A
C1106      H1111   1.083       .  S
C1107      C1108   1.397       .  A
C1107      O1112   1.369       .  S
C1108      C1109   1.397       .  A
C1109      C1110   1.394       .  A
C1109      H1113   1.084       .  S
C1110      O1114   1.372       .  S
O1112      H1116   0.991       .  S
O1114      H1115   0.992       .  S
C1117      C1118   1.403       .  A
C1117      C1122   1.413       .  A
C1118      C1119   1.415       .  A
C1118      H1123   1.083       .  S
C1119      C1120   1.424       .  A
C1119      O1124   1.369       .  S
C1120      C1121   1.402       .  A
C1121      C1122   1.400       .  A
C1121      H1125   1.076       .  S
C1122      O1126   1.372       .  S
O1124      H1128   0.992       .  S
O1126      H1127   0.992       .  S
C1129      C1130   1.403       .  A
C1129      C1134   1.416       .  A
C1130      C1131   1.390       .  A
C1130      H1135   1.083       .  S
C1131      C1132   1.403       .  A
C1131      O1136   1.371       .  S
C1132      C1133   1.396       .  A
C1133      C1134   1.399       .  A
C1133      H1137   1.084       .  S
C1134      O1138   1.371       .  S
O1136      H1140   0.991       .  S
O1138      H1139   0.988       .  S
C1141      C1142   1.413       .  A
C1141      C1146   1.408       .  A
C1142      C1143   1.425       .  A
C1142      H1147   1.083       .  S
C1143      C1144   1.416       .  A
C1143      O1148   1.370       .  S
C1144      C1145   1.413       .  A
C1145      C1146   1.398       .  A
C1145      H1149   1.073       .  S
C1146      O1150   1.373       .  S
O1148      H1152   0.991       .  S
O1150      H1151   0.991       .  S
C1153      C1154   1.419       .  A
C1153      C1158   1.414       .  A
C1154      C1155   1.427   1_655  A
C1154      H1159   1.083       .  S
C1155      C1156   1.418       .  A
C1155      O1160   1.370       .  S
C1156      C1157   1.409       .  A
C1157      C1158   1.402   1_455  A
C1157      H1161   1.082       .  S
C1158      O1162   1.372       .  S
O1160      H1164   0.992   1_455  S
O1162      H1163   0.992   1_655  S
C1165      C1166   1.409       .  A
C1165      C1170   1.433       .  A
C1166      C1167   1.416       .  A
C1166      H1171   1.083       .  S
C1167      C1168   1.419       .  A
C1167      O1172   1.371       .  S
C1168      C1169   1.397       .  A
C1169      C1170   1.402       .  A
C1169      H1173   1.084       .  S
C1170      O1174   1.370       .  S
O1172      H1176   0.991       .  S
O1174      H1175   0.992       .  S
C1177      C1178   1.391       .  A
C1177      C1182   1.413       .  A
C1178      C1179   1.396       .  A
C1178      H1183   1.084       .  S
C1179      C1180   1.416       .  A
C1179      O1184   1.363       .  S
C1180      C1181   1.403       .  A
C1181      C1182   1.400       .  A
C1181      H1185   1.083       .  S
C1182      O1186   1.370       .  S
O1184      H1188   0.985       .  S
O1186      H1187   0.992       .  S
C1189      C1190   1.405       .  A
C1189      C1194   1.410       .  A
C1190      C1191   1.413       .  A
C1190      H1195   1.083       .  S
C1191      C1192   1.422       .  A
C1191      O1196   1.375       .  S
C1192      C1193   1.403   1_455  A
C1193      C1194   1.400   1_655  A
C1193      H1197   1.073       .  S
C1194      O1198   1.372   1_455  S
O1196      H1200   0.991       .  S
O1198      H1199   0.992       .  S
C1201      C1202   1.423       .  A
C1201      C1206   1.409       .  A
C1202      C1203   1.406       .  A
C1202      H1207   1.077       .  S
C1203      C1204   1.404       .  A
C1203      O1208   1.371       .  S
C1204      C1205   1.416       .  A
C1205      C1206   1.414       .  A
C1205      H1209   1.081       .  S
C1206      O1210   1.375       .  S
O1208      H1212   0.992       .  S
O1210      H1211   0.992       .  S
C1213      C1214   1.399       .  A
C1213      C1218   1.398       .  A
C1214      C1215   1.391       .  A
C1214      H1219   1.084       .  S
C1215      C1216   1.414       .  A
C1215      O1220   1.371       .  S
C1216      C1217   1.402       .  A
C1217      C1218   1.400       .  A
C1217      H1221   1.082       .  S
C1218      O1222   1.362       .  S
O1220      H1224   0.992       .  S
O1222      H1223   0.988       .  S
C1225      C1226   1.390       .  A
C1225      C1230   1.402       .  A
C1226      C1227   1.386       .  A
C1226      H1231   1.082       .  S
C1227      C1228   1.409       .  A
C1227      O1232   1.368       .  S
C1228      C1229   1.399       .  A
C1229      C1230   1.384       .  A
C1229      H1233   1.084       .  S
C1230      O1234   1.373       .  S
O1232      H1236   0.984       .  S
O1234      H1235   0.992       .  S
C1237      C1238   1.397       .  A
C1237      C1242   1.400       .  A
C1238      C1239   1.382       .  A
C1238      H1243   1.084       .  S
C1239      C1240   1.410       .  A
C1239      O1244   1.372       .  S
C1240      C1241   1.405       .  A
C1241      C1242   1.395       .  A
C1241      H1245   1.082       .  S
C1242      O1246   1.371       .  S
O1244      H1248   0.992       .  S
O1246      H1247   0.991       .  S
C1249      C1250   1.408       .  A
C1249      C1254   1.417   1_655  A
C1250      C1251   1.405       .  A
C1250      H1255   1.083       .  S
C1251      C1252   1.413   1_655  A
C1251      O1256   1.372       .  S
C1252      C1253   1.403       .  A
C1253      C1254   1.406       .  A
C1253      H1257   1.083       .  S
C1254      O1258   1.369       .  S
O1256      H1260   0.992       .  S
O1258      H1259   0.992       .  S
C1261      C1262   1.416       .  A
C1261      C1266   1.406       .  A
C1262      C1263   1.420       .  A
C1262      H1267   1.082       .  S
C1263      C1264   1.410       .  A
C1263      O1268   1.375       .  S
C1264      C1265   1.423       .  A
C1265      C1266   1.402       .  A
C1265      H1269   1.080       .  S
C1266      O1270   1.371       .  S
O1268      H1272   0.992       .  S
O1270      H1271   0.992       .  S
C1273      C1274   1.416   1_655  A
C1273      C1278   1.414       .  A
C1274      C1275   1.405       .  A
C1274      H1279   1.081       .  S
C1275      C1276   1.408       .  A
C1275      O1280   1.371       .  S
C1276      C1277   1.409       .  A
C1277      C1278   1.412   1_455  A
C1277      H1281   1.083       .  S
C1278      O1282   1.375       .  S
O1280      H1284   0.991       .  S
O1282      H1283   0.992       .  S
C1285      C1286   1.412       .  A
C1285      C1290   1.415       .  A
C1286      C1287   1.422       .  A
C1286      H1291   1.083       .  S
C1287      C1288   1.416       .  A
C1287      O1292   1.372       .  S
C1288      C1289   1.407       .  A
C1289      C1290   1.400       .  A
C1289      H1293   1.084       .  S
C1290      O1294   1.372       .  S
O1292      H1296   0.991       .  S
O1294      H1295   0.992       .  S
C1297      C1298   1.395       .  A
C1297      C1302   1.402       .  A
C1298      C1299   1.397       .  A
C1298      H1303   1.085       .  S
C1299      C1300   1.416       .  A
C1299      O1304   1.375       .  S
C1300      C1301   1.403       .  A
C1301      C1302   1.396       .  A
C1301      H1305   1.083       .  S
C1302      O1306   1.370       .  S
O1304      H1308   0.991       .  S
O1306      H1307   0.991       .  S
C1309      C1310   1.404       .  A
C1309      C1314   1.412       .  A
C1310      C1311   1.402       .  A
C1310      H1315   1.084       .  S
C1311      C1312   1.409       .  A
C1311      O1316   1.377       .  S
C1312      C1313   1.403       .  A
C1313      C1314   1.390       .  A
C1313      H1317   1.083       .  S
C1314      O1318   1.371       .  S
O1316      H1320   0.992       .  S
O1318      H1319   0.992       .  S
C1321      C1322   1.409       .  A
C1321      C1326   1.405       .  A
C1322      C1323   1.393       .  A
C1322      H1327   1.081       .  S
C1323      C1324   1.408       .  A
C1323      O1328   1.371       .  S
C1324      C1325   1.414       .  A
C1325      C1326   1.409       .  A
C1325      H1329   1.082       .  S
C1326      O1330   1.371       .  S
O1328      H1332   0.992       .  S
O1330      H1331   0.992       .  S
C1333      C1334   1.419       .  A
C1333      C1338   1.409       .  A
C1334      C1335   1.405       .  A
C1334      H1339   1.082       .  S
C1335      C1336   1.408       .  A
C1335      O1340   1.371       .  S
C1336      C1337   1.420       .  A
C1337      C1338   1.420       .  A
C1337      H1341   1.083       .  S
C1338      O1342   1.371       .  S
O1340      H1344   0.992       .  S
O1342      H1343   0.991       .  S
C1345      C1346   1.413       .  A
C1345      C1350   1.411       .  A
C1346      C1347   1.416       .  A
C1346      H1351   1.080       .  S
C1347      C1348   1.410       .  A
C1347      O1352   1.370       .  S
C1348      C1349   1.414       .  A
C1349      C1350   1.406       .  A
C1349      H1353   1.083       .  S
C1350      O1354   1.370       .  S
O1352      H1356   0.991       .  S
O1354      H1355   0.992       .  S
C1357      C1358   1.399       .  A
C1357      C1362   1.402       .  A
C1358      C1359   1.398       .  A
C1358      H1363   1.084       .  S
C1359      C1360   1.410       .  A
C1359      O1364   1.372       .  S
C1360      C1361   1.406       .  A
C1361      C1362   1.393       .  A
C1361      H1365   1.083       .  S
C1362      O1366   1.370       .  S
O1364      H1368   0.991       .  S
O1366      H1367   0.992       .  S
C1369      C1370   1.401       .  A
C1369      C1374   1.416       .  A
C1370      C1371   1.396       .  A
C1370      H1375   1.077       .  S
C1371      C1372   1.410       .  A
C1371      O1376   1.372       .  S
C1372      C1373   1.406       .  A
C1373      C1374   1.414       .  A
C1373      H1377   1.083       .  S
C1374      O1378   1.374       .  S
O1376      H1380   0.992       .  S
O1378      H1379   0.991       .  S
