geometry optimzed in LAMMPS
_audit_creation_date              2020-12-01 
_audit_creation_method            'lammps2cif' 
_symmetry_space_group_name_H-M    'P1' 
_symmetry_Int_Tables_number       1 
_symmetry_cell_setting            triclinic 
loop_ 
_symmetry_equiv_pos_as_xyz 
  x,y,z 
_cell_length_a                    28.65129697 
_cell_length_b                    28.825224623844928 
_cell_length_c                    53.89066388828933 
_cell_angle_alpha                 90.5266675676306 
_cell_angle_beta                  90.19111021493569 
_cell_angle_gamma                 90.26440336652114 
loop_ 
_atom_site_label 
_atom_site_type_symbol 
_atom_site_fract_x 
_atom_site_fract_y 
_atom_site_fract_z 
_atom_site_charge 
C1          C  0.81525480  0.63249136  0.31863088     0.04100
C2          C  0.84009640  0.60905653  0.33701339    -0.12000
C3          C  0.87414693  0.63246164  0.35142315     0.01600
C4          C  0.88428574  0.67915400  0.34585534    -0.10500
C5          C  0.86390248  0.70001225  0.32517073     0.04100
C6          C  0.82823265  0.67734869  0.31231670    -0.10000
H7          H  0.83213069  0.57288200  0.34021049     0.09700
H8          H  0.90959174  0.69870625  0.35666822     0.07300
H9          H  0.81119653  0.69436088  0.29688379     0.07100
C10         C  0.71286237  0.73413135  0.11074720     0.04100
C11         C  0.68851396  0.76025536  0.09310984    -0.12000
C12         C  0.70682945  0.80226625  0.08412263     0.01600
C13         C  0.75056645  0.81758644  0.09317306    -0.10500
C14         C  0.77422804  0.79246634  0.11153043     0.04100
C15         C  0.75554780  0.75066324  0.11996732    -0.10000
H16         H  0.65437406  0.74843683  0.08703068     0.09700
H17         H  0.76550207  0.84984743  0.08670397     0.07300
H18         H  0.77312171  0.73217860  0.13470636     0.07100
C19         C  0.35070959  0.71819374  0.32979198     0.04100
C20         C  0.37838845  0.74885036  0.34368204    -0.12000
C21         C  0.35930878  0.78840419  0.35493078     0.01600
C22         C  0.31240911  0.79959524  0.34951416    -0.10500
C23         C  0.28460580  0.77026226  0.33422439     0.04100
C24         C  0.30332624  0.72751154  0.32647196    -0.10000
H25         H  0.41541363  0.74197900  0.34539897     0.09700
H26         H  0.29808598  0.83168234  0.35658856     0.07300
H27         H  0.28220376  0.70320425  0.31582252     0.07100
C28         C  0.87920663  0.23424850  0.12269820     0.04100
C29         C  0.90107706  0.25458040  0.10221395    -0.12000
C30         C  0.88486805  0.29684848  0.09266047     0.01600
C31         C  0.84520819  0.31748148  0.10339851    -0.10500
C32         C  0.82199133  0.29593905  0.12311421     0.04100
C33         C  0.83930937  0.25463154  0.13271176    -0.10000
H34         H  0.93145466  0.23808840  0.09417435     0.09700
H35         H  0.83247068  0.35030278  0.09652541     0.07300
H36         H  0.82194546  0.23854350  0.14830242     0.07100
C37         C  0.13042729  0.86157982  0.28747117     0.43500
N38         N  0.11590561  0.91336181  0.26008839     0.02400
C39         C  0.91888875  0.04956460  0.25213030    -0.05500
H40         H  0.89098672  0.87457637  0.24236431     0.07800
C41         C  0.97659029  0.88329284  0.16140511    -0.05900
Co42       Co  0.03137403  0.96860581  0.27249499     0.74200
N43         N  0.94989298  0.91884802  0.25130887    -0.25000
Co44       Co  0.95599433  0.96662365  0.22270546     0.74100
C45         C  0.92992789  0.86729396  0.16917571     0.43600
N46         N  0.09644492  0.90673385  0.18588823     0.02000
N47         N  0.95872073  0.91370092  0.19678341     0.02100
N48         N  0.96497848  0.04804702  0.28616066    -0.45900
H49         H  0.06482919  0.88111484  0.30993570     0.07800
N50         N  0.97871863  0.92034848  0.27042944     0.02400
N51         N  0.96397303  0.01471460  0.19430909     0.02100
C52         C  0.95380627  0.07068030  0.16925896     0.43700
N53         N  0.12629616  0.90808903  0.20459386    -0.24500
C54         C  0.09140626  0.05186053  0.28913674    -0.05400
N55         N  0.14613644  0.88104128  0.26634893    -0.45600
N56         N  0.93603463  0.04997101  0.18949906    -0.45800
C57         C  0.13570741  0.07152872  0.28160139     0.43500
N58         N  0.98083370  0.01998273  0.26849972     0.02400
N59         N  0.13106846  0.00782930  0.20270834    -0.24500
N60         N  0.08123049  0.91687505  0.27601807    -0.25000
N61         N  0.10264689  0.00706711  0.18338488     0.02000
H62         H  0.19622310  0.04288672  0.21012820     0.07900
H63         H  0.01890908  0.05156058  0.14653160     0.07900
N64         N  0.95331353  0.01916804  0.24887619    -0.25100
N65         N  0.99150283  0.91193275  0.17973356    -0.24700
N66         N  0.12016427  0.01398698  0.25785529     0.02400
C67         C  0.93231780  0.86512533  0.27871973     0.43800
C68         C  0.15860431  0.87531499  0.20093515    -0.05900
N69         N  0.99896009  0.01157547  0.17851581    -0.24700
H70         H  0.99377974  0.87868257  0.14373058     0.07900
N71         N  0.96956337  0.88873676  0.28728485    -0.45900
H72         H  0.18916979  0.87123570  0.21242389     0.07900
C73         C  0.15715697  0.05483317  0.17337460     0.43600
C74         C  0.08720780  0.88545337  0.29400960    -0.05400
Co75       Co  0.12420437  0.96079107  0.23144190     0.73800
N76         N  0.10662734  0.87425223  0.16933783    -0.45600
C77         C  0.92604582  0.06823835  0.27704175     0.43900
N78         N  0.15149557  0.04703461  0.26192604    -0.45600
Co79       Co  0.04754013  0.95906900  0.18140437     0.73900
C80         C  0.99542576  0.04550020  0.16184754    -0.05900
C81         C  0.91914971  0.88437854  0.25478040    -0.05500
N82         N  0.08472282  0.01643594  0.27340068    -0.25000
N83         N  0.92228739  0.88749452  0.19134639    -0.45800
H84         H  0.88856270  0.05255285  0.24024669     0.07900
C85         C  0.16611000  0.03742678  0.19828358    -0.05900
Cl86       Cl  0.03986869  0.96375043  0.22697490    -0.48900
C87         C  0.14557817  0.85274570  0.17736005     0.43600
H88         H  0.06830214  0.06214179  0.30401514     0.07800
N89         N  0.11738544  0.03420658  0.16524022    -0.45600
C90         C  0.26172597  0.62094018  0.12490749     0.04100
C91         C  0.25254541  0.66628571  0.13223368    -0.12000
C92         C  0.21111875  0.68784275  0.12516427     0.01600
C93         C  0.18330458  0.66619023  0.10674724    -0.10500
C94         C  0.19401163  0.62124380  0.09770322     0.04100
C95         C  0.23157794  0.59765391  0.10867883    -0.10000
H96         H  0.27703846  0.68407576  0.14444295     0.09700
H97         H  0.15357830  0.68447948  0.09953447     0.07300
H98         H  0.23883579  0.56186098  0.10385773     0.07100
C99         C  0.76782329  0.14089260  0.33128259     0.04100
C100        C  0.75121278  0.18377180  0.32324825    -0.12000
C101        C  0.71024855  0.20231224  0.33309982     0.01600
C102        C  0.68626396  0.17836786  0.35181599    -0.10500
C103        C  0.70089588  0.13391584  0.35931254     0.04100
C104        C  0.74210969  0.11588147  0.34886694    -0.10000
H105        H  0.76885918  0.20163277  0.30832042     0.09700
H106        H  0.65503769  0.19362762  0.35957055     0.07300
H107        H  0.75362161  0.08141630  0.35370841     0.07100
C108        C  0.19091176  0.31800711  0.34202177     0.04100
C109        C  0.22806050  0.34017721  0.32968648    -0.12000
C110        C  0.25322245  0.31628516  0.31129316     0.01600
C111        C  0.24027529  0.27130699  0.30443578    -0.10500
C112        C  0.20237286  0.24968785  0.31571517     0.04100
C113        C  0.17876210  0.27250116  0.33491663    -0.10000
H114        H  0.23800589  0.37537827  0.33459183     0.09700
H115        H  0.26003428  0.25291352  0.29034366     0.07300
H116        H  0.15043458  0.25477404  0.34419639     0.07100
C117        C  0.35793412  0.13769626  0.08014431     0.04100
C118        C  0.37168253  0.18344970  0.08636376    -0.12000
C119        C  0.34820297  0.20875630  0.10497230     0.01600
C120        C  0.30841293  0.18967904  0.11604587    -0.10500
C121        C  0.29343752  0.14473418  0.10975406     0.04100
C122        C  0.31823922  0.11915618  0.09184332    -0.10000
H123        H  0.40271964  0.19826895  0.07813447     0.09700
H124        H  0.29194427  0.20793942  0.13133366     0.07300
H125        H  0.30825898  0.08339913  0.08831304     0.07100
C126        C  0.65326877  0.55421189  0.27088520     0.43500
N127        N  0.59317545  0.54379858  0.24820822     0.02400
C128        C  0.44873810  0.35493833  0.24419204    -0.05500
H129        H  0.62289249  0.31206645  0.23805451     0.07800
C130        C  0.63379939  0.41449667  0.15873908    -0.05900
Co131      Co  0.54016627  0.46047667  0.26358862     0.74200
N132        N  0.58934496  0.37756648  0.24413506    -0.25000
Co133      Co  0.54117225  0.38034066  0.21548019     0.74100
C134        C  0.65690201  0.37348622  0.16792699     0.43600
N135        N  0.59390989  0.52154422  0.17437975     0.02000
N136        N  0.59489526  0.38407242  0.18905343     0.02100
N137        N  0.45192450  0.40826565  0.27537998    -0.45900
H138        H  0.63745373  0.49032635  0.29462932     0.07800
N139        N  0.58847343  0.40671117  0.26307380     0.02400
N140        N  0.49277034  0.38266082  0.18699655     0.02100
C141        C  0.44522297  0.35685318  0.15901569     0.43700
N142        N  0.59348035  0.55019949  0.19353155    -0.24500
C143        C  0.46170733  0.52750455  0.28229713    -0.05400
N144        N  0.62935768  0.57187862  0.25158924    -0.45600
N145        N  0.46379495  0.34837206  0.18149648    -0.45800
C146        C  0.44248319  0.57177648  0.27374967     0.43500
N147        N  0.48809085  0.41165353  0.26043218     0.02400
N148        N  0.49227662  0.54810018  0.19215007    -0.24500
N149        N  0.59229524  0.50962936  0.26436612    -0.25000
N150        N  0.49347391  0.51755659  0.17371997     0.02000
H151        H  0.44451543  0.60355599  0.20109860     0.07900
H152        H  0.46267668  0.41828044  0.13329463     0.07900
N153        N  0.48750055  0.38097032  0.24204583    -0.25100
N154        N  0.59587045  0.41828004  0.17289140    -0.24700
N155        N  0.49136024  0.54568763  0.24695658     0.02400
C156        C  0.63393345  0.35186021  0.27477097     0.43800
C157        C  0.62314286  0.58504415  0.18953331    -0.05900
N158        N  0.49491561  0.41423592  0.16953968    -0.24700
H159        H  0.64376495  0.43758125  0.14394004     0.07900
N160        N  0.61382690  0.39207553  0.28209700    -0.45900
H161        H  0.62627735  0.61590181  0.20100934     0.07900
C162        C  0.43378930  0.55818777  0.16613532     0.43600
C163        C  0.62899123  0.51335282  0.27955178    -0.05400
Co164      Co  0.54257675  0.54776969  0.22028569     0.73800
N165        N  0.62088182  0.53701073  0.15623740    -0.45600
C166        C  0.42566837  0.37335393  0.26632999     0.43900
N167        N  0.46266698  0.58021220  0.25172481    -0.45600
Co168      Co  0.54456769  0.46791652  0.17206640     0.73900
C169        C  0.46586883  0.40110353  0.15096920    -0.05900
C170        C  0.61836286  0.34291316  0.24935631    -0.05500
N171        N  0.49163098  0.51420573  0.26445427    -0.25000
N172        N  0.63103398  0.35588118  0.18657230    -0.45800
H173        H  0.43806151  0.32702049  0.23186240     0.07900
C174        C  0.45516796  0.57547533  0.18897180    -0.05900
Cl175      Cl  0.54213605  0.46408512  0.21783237    -0.48900
C176        C  0.64072588  0.57695931  0.16459683     0.43600
H177        H  0.45744022  0.51047580  0.29993796     0.07800
N178        N  0.45897776  0.52228060  0.15769696    -0.45600
N179        N  0.52259491  0.96340050  0.50911511    -0.35600
N180        N  0.57405417  0.01611183  0.47253668    -0.56200
N181        N  0.52632617  0.96394348  0.43289242    -0.35600
N182        N  0.47470251  0.91156363  0.46979866    -0.56200
C183        C  0.54044247  0.99745725  0.52384263     0.28000
C184        C  0.48969223  0.94116700  0.52252676     0.28000
C185        C  0.56137894  0.98381242  0.41983677     0.28000
C186        C  0.50734617  0.93011678  0.41832106     0.28000
C187        C  0.59167597  0.03703757  0.49313914     0.36600
C188        C  0.59494178  0.03615436  0.45287895     0.36600
C189        C  0.45414430  0.89112656  0.48943473     0.36600
C190        C  0.45459183  0.89299188  0.44926606     0.36600
C191        C  0.51857033  0.99670824  0.54676518    -0.20900
C192        C  0.48680453  0.96107909  0.54598276    -0.20900
C193        C  0.56437820  0.96251038  0.39670522    -0.20900
C194        C  0.53027759  0.92883374  0.39572791    -0.20900
C195        C  0.62445730  0.07007194  0.48649945    -0.21900
C196        C  0.62506728  0.07089506  0.46114006    -0.21900
C197        C  0.42129711  0.85894536  0.48130419    -0.21900
C198        C  0.42018999  0.86153422  0.45602040    -0.21900
C199        C  0.57721918  0.02829356  0.51780617    -0.17300
C200        C  0.46243942  0.90279647  0.51462072    -0.17300
C201        C  0.46949553  0.90056644  0.42455672    -0.17300
C202        C  0.59015989  0.02148343  0.42773806    -0.17300
H203        H  0.52487538  0.01951004  0.56250214     0.15600
H204        H  0.46379715  0.95125136  0.56095383     0.15600
H205        H  0.58876052  0.97035368  0.38201496     0.15600
H206        H  0.52343065  0.90570153  0.38019174     0.15600
H207        H  0.64532232  0.09216418  0.49851652     0.13900
H208        H  0.64650261  0.09387909  0.45021685     0.13900
H209        H  0.39930829  0.83661422  0.49231321     0.13900
H210        H  0.39739932  0.84125108  0.44407649     0.13900
H211        H  0.53384879  0.95412927  0.49150064     0.27200
H212        H  0.51463934  0.97428196  0.45027532     0.27200
N213        N  0.03800523  0.46419079  0.00917338    -0.35600
N214        N  0.08088833  0.52323148  0.97129118    -0.56200
N215        N  0.03525211  0.46880132  0.93270103    -0.35600
N216        N  0.98832588  0.41360431  0.97101480    -0.56200
C217        C  0.05617178  0.49824597  0.02369423     0.28000
C218        C  0.00675753  0.44034162  0.02300503     0.28000
C219        C  0.05083676  0.50546185  0.91949160     0.28000
C220        C  0.00030241  0.44843899  0.91956694     0.28000
C221        C  0.10517266  0.53758492  0.99157673     0.36600
C222        C  0.10486072  0.53822547  0.95121688     0.36600
C223        C  0.98052712  0.38525514  0.99038925     0.36600
C224        C  0.97811839  0.38871360  0.95041593     0.36600
C225        C  0.03692919  0.49500284  0.04729169    -0.20900
C226        C  0.00489581  0.45952914  0.04660439    -0.20900
C227        C  0.02555541  0.50831324  0.89756735    -0.20900
C228        C  0.99368543  0.47221859  0.89759567    -0.20900
C229        C  0.14391638  0.56302178  0.98423234    -0.21900
C230        C  0.14458574  0.56200278  0.95883989    -0.21900
C231        C  0.96534596  0.34213190  0.98209257    -0.21900
C232        C  0.96357533  0.34438861  0.95669789    -0.21900
C233        C  0.09192040  0.52978392  0.01663441    -0.17300
C234        C  0.98267900  0.39954792  0.01544623    -0.17300
C235        C  0.97658755  0.40722885  0.92631378    -0.17300
C236        C  0.08917657  0.53436702  0.92622406    -0.17300
H237        H  0.04532677  0.51507391  0.06373024     0.15600
H238        H  0.98398018  0.44809563  0.06209265     0.15600
H239        H  0.03003878  0.53342454  0.88294935     0.15600
H240        H  0.96890476  0.46403901  0.88297970     0.15600
H241        H  0.16938760  0.58072357  0.99577876     0.13900
H242        H  0.17078756  0.57825615  0.94737228     0.13900
H243        H  0.95553066  0.31258220  0.99320321     0.13900
H244        H  0.95204480  0.31687928  0.94428774     0.13900
H245        H  0.04879908  0.45592990  0.99132981     0.27200
H246        H  0.04968113  0.45644453  0.94906292     0.27200
N247        N  0.02993829  0.46421476  0.43184379    -0.35600
N248        N  0.08155894  0.41130205  0.46832760    -0.56200
N249        N  0.03580495  0.46222391  0.50842514    -0.35600
N250        N  0.98849802  0.51892479  0.47160677    -0.56200
C251        C  0.06098033  0.44227325  0.41705438     0.28000
C252        C  0.01069393  0.49864429  0.41846176     0.28000
C253        C  0.07125776  0.44148772  0.52066243     0.28000
C254        C  0.02121901  0.49831787  0.52259700     0.28000
C255        C  0.09011723  0.38564645  0.44776461     0.36600
C256        C  0.09276551  0.38456817  0.48785526     0.36600
C257        C  0.96359551  0.53524421  0.45220931     0.36600
C258        C  0.96611225  0.53301667  0.49238367     0.36600
C259        C  0.06124445  0.46272974  0.39388720    -0.20900
C260        C  0.02878052  0.49745887  0.39456891    -0.20900
C261        C  0.07918014  0.46460082  0.54298438    -0.20900
C262        C  0.04743524  0.50041954  0.54423876    -0.20900
C263        C  0.10701021  0.34245831  0.45416866    -0.21900
C264        C  0.10836083  0.34160405  0.47963837    -0.21900
C265        C  0.92600823  0.56086449  0.46079111    -0.21900
C266        C  0.92683365  0.55832835  0.48610411    -0.21900
C267        C  0.08687562  0.40244590  0.42334377    -0.17300
C268        C  0.97557479  0.52938511  0.42688364    -0.17300
C269        C  0.98329960  0.52773886  0.51688970    -0.17300
C270        C  0.09451089  0.40066898  0.51269649    -0.17300
H271        H  0.08171798  0.45292672  0.37785331     0.15600
H272        H  0.01952481  0.51879535  0.37894417     0.15600
H273        H  0.10480764  0.45620939  0.55702193     0.15600
H274        H  0.04387845  0.52505873  0.55938242     0.15600
H275        H  0.11783756  0.31482090  0.44176571     0.13900
H276        H  0.12068753  0.31313640  0.49081692     0.13900
H277        H  0.90051877  0.57976968  0.45010459     0.13900
H278        H  0.90198878  0.57463359  0.49844534     0.13900
H279        H  0.02050353  0.45462718  0.44968344     0.27200
H280        H  0.02046899  0.45064510  0.49198707     0.27200
N281        N  0.54491637  0.97608176  0.93078267    -0.35600
N282        N  0.48400066  0.01650362  0.96813309    -0.56200
N283        N  0.53684104  0.97037571  0.00716595    -0.35600
N284        N  0.59393026  0.92564017  0.96943370    -0.56200
C285        C  0.51085195  0.99323790  0.91609737     0.28000
C286        C  0.56918645  0.94500790  0.91706917     0.28000
C287        C  0.49932872  0.98568530  0.01998521     0.28000
C288        C  0.55656651  0.93586441  0.02041169     0.28000
C289        C  0.47023758  0.04100181  0.94810762     0.36600
C290        C  0.46779890  0.03948906  0.98831099     0.36600
C291        C  0.62297808  0.91833865  0.95013095     0.36600
C292        C  0.61790400  0.91420016  0.99007081     0.36600
C293        C  0.51444975  0.97362702  0.89255424    -0.20900
C294        C  0.55053457  0.94253779  0.89332963    -0.20900
C295        C  0.49529912  0.96090077  0.04180351    -0.20900
C296        C  0.53135650  0.92927023  0.04202623    -0.20900
C297        C  0.44426122  0.07902995  0.95563920    -0.21900
C298        C  0.44368244  0.07869183  0.98103245    -0.21900
C299        C  0.66562006  0.90212334  0.95848949    -0.21900
C300        C  0.66240109  0.89945170  0.98385253    -0.21900
C301        C  0.47849829  0.02798667  0.92308896    -0.17300
C302        C  0.60948774  0.92106943  0.92498577    -0.17300
C303        C  0.59840823  0.91253581  0.01408955    -0.17300
C304        C  0.47061954  0.02335858  0.01303492    -0.17300
H305        H  0.49377221  0.98100903  0.87626519     0.15600
H306        H  0.56232363  0.92138779  0.87790697     0.15600
H307        H  0.46930973  0.96542994  0.05613981     0.15600
H308        H  0.53862481  0.90474079  0.05660966     0.15600
H309        H  0.42717449  0.10447121  0.94417887     0.13900
H310        H  0.42629353  0.10389850  0.99273014     0.13900
H311        H  0.69543548  0.89219050  0.94739568     0.13900
H312        H  0.68936636  0.88719994  0.99625118     0.13900
H313        H  0.55286030  0.98689408  0.94867296     0.27200
H314        H  0.54993572  0.98481627  0.99106300     0.27200
C315        C  0.77135712  0.79559494  0.82233191     0.04100
C316        C  0.74952796  0.75380977  0.81547567    -0.12000
C317        C  0.70331236  0.74516278  0.82200630     0.01600
C318        C  0.67981967  0.77610096  0.83759645    -0.10500
C319        C  0.70308364  0.81529861  0.84736015     0.04100
C320        C  0.74812389  0.82581975  0.83875570    -0.10000
H321        H  0.76768042  0.72866486  0.80402302     0.09700
H322        H  0.64397229  0.76890295  0.84269704     0.07300
H323        H  0.76524478  0.85729947  0.84506055     0.07100
C324        C  0.79506995  0.28370780  0.83166825     0.04100
C325        C  0.80844601  0.23781997  0.82683009    -0.12000
C326        C  0.85019006  0.22062638  0.83637516     0.01600
C327        C  0.87550777  0.24693678  0.85388666    -0.10500
C328        C  0.86255057  0.29288698  0.85956900     0.04100
C329        C  0.82245774  0.31115293  0.84793043    -0.10000
H330        H  0.78896652  0.21701838  0.81347786     0.09700
H331        H  0.90698440  0.23242948  0.86174306     0.07300
H332        H  0.81349282  0.34727589  0.85079259     0.07100
C333        C  0.38003628  0.12116729  0.84220057     0.04100
C334        C  0.40525843  0.15372945  0.82803213    -0.12000
C335        C  0.38362126  0.17788008  0.80874441     0.01600
C336        C  0.33868724  0.16589095  0.80126468    -0.10500
C337        C  0.31376164  0.13223206  0.81403233     0.04100
C338        C  0.33325923  0.11172799  0.83521972    -0.10000
H339        H  0.44136207  0.16167173  0.83228796     0.09700
H340        H  0.32263108  0.18359381  0.78576848     0.07300
H341        H  0.31183238  0.08835024  0.84592223     0.07100
C342        C  0.21055439  0.71254164  0.83063375     0.04100
C343        C  0.25396204  0.69629871  0.82249892    -0.12000
C344        C  0.26985476  0.65188340  0.82898192     0.01600
C345        C  0.24334704  0.62567669  0.84598116    -0.10500
C346        C  0.20052971  0.64231540  0.85538803     0.04100
C347        C  0.18444927  0.68557021  0.84715936    -0.10000
H348        H  0.27402380  0.71713442  0.80970680     0.09700
H349        H  0.25551589  0.59178950  0.85142556     0.07300
H350        H  0.15046732  0.69781390  0.85296783     0.07100
C351        C  0.20956936  0.28977352  0.57927747     0.04100
C352        C  0.25295931  0.30768710  0.58720028    -0.12000
C353        C  0.28053456  0.28405887  0.60453178     0.01600
C354        C  0.26502572  0.24120527  0.61339520    -0.10500
C355        C  0.22109593  0.22341706  0.60656530     0.04100
C356        C  0.19425020  0.24717400  0.58891435    -0.10000
H357        H  0.26435260  0.34142733  0.58084896     0.09700
H358        H  0.28559631  0.22334809  0.62722058     0.07300
H359        H  0.16049712  0.23340524  0.58346223     0.07100
C360        C  0.68369503  0.18285693  0.63109860     0.04100
C361        C  0.72656830  0.16503626  0.63834041    -0.12000
C362        C  0.74401231  0.12508610  0.62705391     0.01600
C363        C  0.71949687  0.10453279  0.60719840    -0.10500
C364        C  0.67515854  0.12110523  0.60010986     0.04100
C365        C  0.65704564  0.15997919  0.61283446    -0.10000
H366        H  0.74680342  0.18274604  0.65263135     0.09700
H367        H  0.73487863  0.07529044  0.59754632     0.07300
H368        H  0.62286949  0.17333196  0.60825087     0.07100
C369        C  0.42412105  0.56086629  0.77683647     0.43500
N370        N  0.44987660  0.51155402  0.74985849     0.02400
C371        C  0.66328298  0.39946969  0.75000911    -0.05500
H372        H  0.67382848  0.57494459  0.73841938     0.07800
C373        C  0.59621657  0.54881720  0.65368693    -0.05900
Co374      Co  0.54009924  0.46874682  0.76516725     0.74200
N375        N  0.61778196  0.52656864  0.74567447    -0.25000
Co376      Co  0.62055616  0.47570969  0.71782479     0.74100
C377        C  0.64059784  0.57038299  0.66161561     0.43600
N378        N  0.47824156  0.51593930  0.67599671     0.02000
N379        N  0.61478652  0.52516716  0.69027934     0.02100
N380        N  0.61067825  0.39428045  0.78095558    -0.45900
H381        H  0.49075977  0.55291089  0.80079513     0.07800
N382        N  0.58716094  0.52346607  0.76389432     0.02400
N383        N  0.61969130  0.42335855  0.69039959     0.02100
C384        C  0.63291159  0.36276514  0.66854645     0.43700
N385        N  0.44709752  0.51367673  0.69403748    -0.24500
C386        C  0.49199932  0.37641230  0.77899715    -0.05400
N387        N  0.41393036  0.53832537  0.75537627    -0.45600
N388        N  0.64860294  0.38774611  0.68823594    -0.45800
C389        C  0.45346035  0.34914092  0.76902712     0.43500
N390        N  0.59662153  0.42331331  0.76351870     0.02400
N391        N  0.45268618  0.41351074  0.69293810    -0.24500
N392        N  0.48333005  0.51404624  0.76665788    -0.25000
N393        N  0.48226380  0.41615579  0.67434715     0.02000
H394        H  0.38882544  0.37553230  0.69816533     0.07900
H395        H  0.56845383  0.37403680  0.64403842     0.07900
N396        N  0.62697310  0.42689808  0.74536451    -0.25100
N397        N  0.58314155  0.52143695  0.67259165    -0.24700
N398        N  0.45981179  0.41082573  0.74779825     0.02400
C399        C  0.62755376  0.58341715  0.77305267     0.43800
C400        C  0.41447120  0.54597998  0.69005083    -0.05900
N401        N  0.58584000  0.42177703  0.67369268    -0.24700
H402        H  0.57981714  0.54890932  0.63559339     0.07900
N403        N  0.59194236  0.55670658  0.78078625    -0.45900
H404        H  0.38380683  0.55186209  0.70124555     0.07900
C405        C  0.43120045  0.36551547  0.66247714     0.43600
C406        C  0.47069065  0.54478883  0.78429755    -0.05400
Co407      Co  0.45153026  0.46241839  0.72129189     0.73800
N408        N  0.46871062  0.54810427  0.65948575    -0.45600
C409        C  0.65237426  0.37718954  0.77351148     0.43900
N410        N  0.43480950  0.37231161  0.74980058    -0.45600
Co411      Co  0.53237220  0.46905120  0.67373540     0.73900
C412        C  0.59151954  0.38489213  0.65894103    -0.05900
C413        C  0.64487594  0.56388475  0.74979092    -0.05500
N414        N  0.49350479  0.41377876  0.76453766    -0.25000
N415        N  0.64893349  0.55394853  0.68453634    -0.45800
H416        H  0.69500686  0.39861780  0.73921787     0.07900
C417        C  0.42007414  0.38173977  0.68746252    -0.05900
Cl418      Cl  0.53611209  0.46925235  0.71951209    -0.48900
C419        C  0.42886475  0.56803140  0.66702728     0.43600
H420        H  0.51546212  0.36897707  0.79419675     0.07800
N421        N  0.46992633  0.38890500  0.65542049    -0.45600
C422        C  0.79107180  0.65017969  0.60255759     0.04100
C423        C  0.82126552  0.62386528  0.58755029    -0.12000
C424        C  0.86723708  0.63925127  0.58289934     0.01600
C425        C  0.88215428  0.68159100  0.59373490    -0.10500
C426        C  0.85133549  0.70936007  0.60768776     0.04100
C427        C  0.80511188  0.69419207  0.61080813    -0.10000
H428        H  0.80955239  0.59037649  0.58066339     0.09700
H429        H  0.91829842  0.69222173  0.59196500     0.07300
H430        H  0.78129499  0.71448739  0.62204179     0.07100
C431        C  0.30911882  0.79805454  0.62400836     0.04100
C432        C  0.32319640  0.75429947  0.63158745    -0.12000
C433        C  0.36072464  0.73263363  0.61993036     0.01600
C434        C  0.38217523  0.75359892  0.59947914    -0.10500
C435        C  0.36903319  0.79864331  0.59225738     0.04100
C436        C  0.33330133  0.82104804  0.60538861    -0.10000
H437        H  0.30557354  0.73751202  0.64688223     0.09700
H438        H  0.40991476  0.73549935  0.58989172     0.07300
H439        H  0.32363747  0.85633926  0.60101454     0.07100
C440        C  0.93826430  0.86675180  0.77686328     0.43500
N441        N  0.98835777  0.88769117  0.74972345     0.02400
C442        C  0.11512528  0.09102273  0.74733254    -0.05500
H443        H  0.94022165  0.11606664  0.73777542     0.07800
C444        C  0.94361898  0.01600503  0.65717132    -0.05900
Co445      Co  0.03487834  0.97597763  0.76459682     0.74200
N446        N  0.97962638  0.05431605  0.74443185    -0.25000
Co447      Co  0.02892612  0.05475202  0.71642390     0.74100
C448        C  0.91821746  0.05646724  0.66580790     0.43600
N449        N  0.98514088  0.91092559  0.67571655     0.02000
N450        N  0.97734437  0.04703393  0.68933559     0.02100
N451        N  0.11757704  0.03700985  0.77758382    -0.45900
H452        H  0.94844500  0.93475706  0.79926096     0.07800
N453        N  0.98244722  0.02589783  0.76338584     0.02400
N454        N  0.07848522  0.05411724  0.68832522     0.02100
C455        C  0.12997641  0.07605886  0.66182380     0.43700
N456        N  0.98698565  0.88112475  0.69409220    -0.24500
C457        C  0.11587859  0.91374649  0.78446956    -0.05400
N458        N  0.95954122  0.85362176  0.75561301    -0.45600
N459        N  0.10692865  0.08859921  0.68266310    -0.45800
C460        C  0.13609791  0.86921810  0.77682510     0.43500
N461        N  0.08303097  0.02902373  0.76185013     0.02400
N462        N  0.08798708  0.88763091  0.69405289    -0.24500
N463        N  0.98716181  0.92232661  0.76587029    -0.25000
N464        N  0.08614323  0.91743632  0.67565889     0.02000
H465        H  0.13626317  0.83319604  0.70335086     0.07900
H466        H  0.12073165  0.00795560  0.63919753     0.07900
N467        N  0.08082565  0.05972849  0.74383377    -0.25100
N468        N  0.97958222  0.01291395  0.67289993    -0.24700
N469        N  0.08898701  0.89286401  0.74858596     0.02400
C470        C  0.93221801  0.07715079  0.77460017     0.43800
C471        C  0.95625185  0.84696229  0.68955367    -0.05900
N472        N  0.08036587  0.01968904  0.67214857    -0.24700
H473        H  0.93625759  0.99277190  0.64176284     0.07900
N474        N  0.95542257  0.03895927  0.78209768    -0.45900
H475        H  0.95248988  0.81584023  0.70040312     0.07900
C476        C  0.14696820  0.87784087  0.66868745     0.43600
C477        C  0.95585456  0.91285523  0.78338906    -0.05400
Co478      Co  0.03793748  0.88659025  0.72156430     0.73800
N479        N  0.95486890  0.89852132  0.65824954    -0.45600
C480        C  0.13905108  0.07571856  0.76977138     0.43900
N481        N  0.11763598  0.85898303  0.75442765    -0.45600
Co482      Co  0.03290533  0.96509803  0.67361661     0.73900
C483        C  0.11252413  0.02974271  0.65497497    -0.05900
C484        C  0.94737768  0.08634099  0.74926155    -0.05500
N485        N  0.08700128  0.92549605  0.76583406    -0.25000
N486        N  0.94073325  0.07404201  0.68584562    -0.45800
H487        H  0.12211450  0.12060117  0.73574668     0.07900
C488        C  0.12558106  0.86094026  0.69124375    -0.05900
Cl489      Cl  0.03360909  0.97062047  0.71907455    -0.48900
C490        C  0.93478138  0.85866569  0.66578833     0.43600
H491        H  0.11799676  0.93111504  0.80231364     0.07800
N492        N  0.12084434  0.91260197  0.65978287    -0.45600
C493        C  0.26798212  0.81966011  0.63525182    -0.04300
C494        C  0.22500454  0.81829176  0.62242173    -0.01400
C495        C  0.18561509  0.83937969  0.63292923     0.03500
C496        C  0.18883858  0.85956938  0.65678179    -0.04300
C497        C  0.23164313  0.86046193  0.66973445    -0.01400
C498        C  0.27147579  0.84110160  0.65876722     0.03500
C499        C  0.22080445  0.79323703  0.59902796     0.38200
C500        C  0.23484136  0.88197666  0.69414699     0.38200
C501        C  0.31596704  0.84337826  0.67162762     0.36600
C502        C  0.14147408  0.83887277  0.61960332     0.36600
N503        N  0.35128581  0.84562654  0.68204154    -0.38200
N504        N  0.10631304  0.83867440  0.60896377    -0.38200
N505        N  0.23729482  0.89902810  0.71363462    -0.37700
N506        N  0.21711810  0.77269449  0.58056793    -0.37700
C507        C  0.86889087  0.75110470  0.62174245    -0.04300
C508        C  0.85963162  0.75628013  0.64748026    -0.01400
C509        C  0.87514139  0.79605366  0.66038265     0.03500
C510        C  0.90811257  0.82591721  0.64959442    -0.04300
C511        C  0.91785480  0.82110798  0.62399889    -0.01400
C512        C  0.89548570  0.78595737  0.60986976     0.03500
C513        C  0.83657076  0.72004115  0.66143177     0.38200
C514        C  0.95157227  0.85122226  0.61206481     0.38200
C515        C  0.89796037  0.78801745  0.58310599     0.36600
C516        C  0.85365620  0.80864305  0.68377822     0.36600
N517        N  0.89986269  0.79271753  0.56185610    -0.38200
N518        N  0.83470424  0.81981974  0.70177182    -0.38200
N519        N  0.97867427  0.87487052  0.60245691    -0.37700
N520        N  0.81857386  0.69139953  0.67292922    -0.37700
C521        C  0.37977542  0.69015588  0.63110704    -0.04300
C522        C  0.37112970  0.64632293  0.62021027    -0.01400
C523        C  0.38638015  0.60594145  0.63227473     0.03500
C524        C  0.40947020  0.60954181  0.65539332    -0.04300
C525        C  0.41851977  0.65334250  0.66614368    -0.01400
C526        C  0.40419526  0.69363275  0.65387067     0.03500
C527        C  0.34653475  0.64291785  0.59669798     0.38200
C528        C  0.44416319  0.65697841  0.68937657     0.38200
C529        C  0.41621553  0.73878568  0.66420682     0.36600
C530        C  0.37832895  0.56072420  0.62096904     0.36600
N531        N  0.42653850  0.77463219  0.67240260    -0.38200
N532        N  0.37201005  0.52466931  0.61191168    -0.38200
N533        N  0.46465144  0.65973914  0.70788135    -0.37700
N534        N  0.32703895  0.64034816  0.57788974    -0.37700
C535        C  0.67866576  0.58997175  0.64554651    -0.04300
C536        C  0.72634755  0.58017550  0.65088522    -0.01400
C537        C  0.76228513  0.59977549  0.63658121     0.03500
C538        C  0.75176321  0.62730295  0.61583606    -0.04300
C539        C  0.70472887  0.63663073  0.61002426    -0.01400
C540        C  0.66830630  0.61858117  0.62495210     0.03500
C541        C  0.73961093  0.54935728  0.67086796     0.38200
C542        C  0.69399043  0.66552522  0.58890994     0.38200
C543        C  0.62046275  0.63134966  0.61962408     0.36600
C544        C  0.81061010  0.59362673  0.64416335     0.36600
N545        N  0.58235149  0.64181734  0.61531626    -0.38200
N546        N  0.84896750  0.58941125  0.65052460    -0.38200
N547        N  0.68549052  0.68852951  0.57201307    -0.37700
N548        N  0.75064791  0.52490675  0.68674636    -0.37700
C549        C  0.66996619  0.22867652  0.64089999    -0.04300
C550        C  0.65018294  0.23300923  0.66472986    -0.01400
C551        C  0.64023408  0.27735151  0.67451575     0.03500
C552        C  0.64993008  0.31717135  0.66036157    -0.04300
C553        C  0.67023715  0.31277031  0.63668385    -0.01400
C554        C  0.68093802  0.26861153  0.62712542     0.03500
C555        C  0.63951264  0.19185829  0.67894965     0.38200
C556        C  0.68004393  0.35377892  0.62213168     0.38200
C557        C  0.70431428  0.26422665  0.60336414     0.36600
C558        C  0.61844787  0.28194042  0.69868006     0.36600
N559        N  0.72330510  0.26061585  0.58453059    -0.38200
N560        N  0.60113663  0.28561589  0.71796991    -0.38200
N561        N  0.68775237  0.38647221  0.61050640    -0.37700
N562        N  0.63079026  0.15906266  0.69028958    -0.37700
C563        C  0.78825329  0.10533785  0.63646182    -0.04300
C564        C  0.82785123  0.10269909  0.62101467    -0.01400
C565        C  0.87023892  0.08568551  0.63049304     0.03500
C566        C  0.87384242  0.07387515  0.65579648    -0.04300
C567        C  0.83475807  0.07792228  0.67145119    -0.01400
C568        C  0.79169203  0.09213732  0.66163345     0.03500
C569        C  0.82577145  0.12003350  0.59584501     0.38200
C570        C  0.83866876  0.06717845  0.69765796     0.38200
C571        C  0.75082156  0.09272936  0.67748307     0.36600
C572        C  0.91072733  0.08243287  0.61446915     0.36600
N573        N  0.71841259  0.09306068  0.69023544    -0.38200
N574        N  0.94302067  0.07977308  0.60169907    -0.38200
N575        N  0.84187715  0.05913648  0.71859645    -0.37700
N576        N  0.82415908  0.13434214  0.57586762    -0.37700
C577        C  0.15812324  0.10974636  0.64704435    -0.04300
C578        C  0.18180719  0.14613989  0.65970748    -0.01400
C579        C  0.19984917  0.18409933  0.64656749     0.03500
C580        C  0.20086823  0.18325588  0.62030659    -0.04300
C581        C  0.18125350  0.14482392  0.60749265    -0.01400
C582        C  0.15801105  0.10939942  0.62066710     0.03500
C583        C  0.18873967  0.14455478  0.68639665     0.38200
C584        C  0.18460076  0.14176266  0.58064877     0.38200
C585        C  0.13216310  0.07462800  0.60662565     0.36600
C586        C  0.21453462  0.22527127  0.66032628     0.36600
N587        N  0.11151143  0.04756036  0.59492862    -0.38200
N588        N  0.22588298  0.25818835  0.67127549    -0.38200
N589        N  0.18719950  0.13930819  0.55924972    -0.37700
N590        N  0.19522790  0.14346428  0.70758781    -0.37700
C591        C  0.32162450  0.30732706  0.61657649    -0.04300
C592        C  0.36551871  0.28495473  0.61795272    -0.01400
C593        C  0.40217894  0.30470501  0.63226550     0.03500
C594        C  0.39561599  0.34739036  0.64472118    -0.04300
C595        C  0.35314363  0.37148093  0.64168173    -0.01400
C596        C  0.31581482  0.35083017  0.62856521     0.03500
C597        C  0.37277035  0.24123429  0.60502427     0.38200
C598        C  0.34762303  0.41784047  0.65202208     0.38200
C599        C  0.27046327  0.37316139  0.62902398     0.36600
C600        C  0.44611777  0.28042989  0.63490002     0.36600
N601        N  0.23422825  0.39073426  0.62944046    -0.38200
N602        N  0.48120383  0.26112809  0.63708955    -0.38200
N603        N  0.34314913  0.45485333  0.66014835    -0.37700
N604        N  0.37847234  0.20623384  0.59480669    -0.37700
C605        C  0.31185982  0.63144068  0.81614469    -0.04300
C606        C  0.34774026  0.60929556  0.82972417    -0.01400
C607        C  0.38468146  0.58632550  0.81725534     0.03500
C608        C  0.38856306  0.58850014  0.79103655    -0.04300
C609        C  0.35489438  0.61417579  0.77775133    -0.01400
C610        C  0.31568036  0.63304553  0.78990633     0.03500
C611        C  0.34694594  0.61008862  0.85664918     0.38200
C612        C  0.36051989  0.62194454  0.75134386     0.38200
C613        C  0.27811113  0.65172372  0.77489092     0.36600
C614        C  0.41671285  0.55846155  0.83163119     0.36600
N615        N  0.24831868  0.66651573  0.76279876    -0.38200
N616        N  0.44166677  0.53606469  0.84341701    -0.38200
N617        N  0.36468037  0.62879800  0.73034749    -0.37700
N618        N  0.34628028  0.61060617  0.87812311    -0.37700
C619        C  0.15234392  0.83182043  0.79353084    -0.04300
C620        C  0.19401625  0.83672004  0.80729376    -0.01400
C621        C  0.21257680  0.79829374  0.82012663     0.03500
C622        C  0.18953121  0.75466788  0.81914910    -0.04300
C623        C  0.14668719  0.75060896  0.80614112    -0.01400
C624        C  0.12750705  0.78927060  0.79416185     0.03500
C625        C  0.21825375  0.88101205  0.80774435     0.38200
C626        C  0.12327522  0.70595774  0.80373107     0.38200
C627        C  0.08160938  0.78508783  0.78274725     0.36600
C628        C  0.25564994  0.80362868  0.83406596     0.36600
N629        N  0.04500173  0.78166858  0.77374561    -0.38200
N630        N  0.29018430  0.80798896  0.84505803    -0.38200
N631        N  0.10458076  0.67043077  0.80174218    -0.37700
N632        N  0.23729251  0.91651622  0.80811552    -0.37700
C633        C  0.43561320  0.30517327  0.77889197    -0.04300
C634        C  0.41729459  0.30412070  0.80311002    -0.01400
C635        C  0.40062670  0.26217318  0.81280749     0.03500
C636        C  0.40444565  0.22072982  0.79880733    -0.04300
C637        C  0.42231892  0.22183744  0.77446166    -0.01400
C638        C  0.43713441  0.26429840  0.76432127     0.03500
C639        C  0.41313371  0.34670962  0.81751671     0.38200
C640        C  0.42455962  0.17951630  0.75976695     0.38200
C641        C  0.45353172  0.26609842  0.73889558     0.36600
C642        C  0.37629629  0.26224324  0.83640189     0.36600
N643        N  0.46615135  0.26781639  0.71854184    -0.38200
N644        N  0.35610243  0.26240023  0.85496479    -0.38200
N645        N  0.42629913  0.14576344  0.74801795    -0.37700
N646        N  0.40967246  0.38073344  0.82891814    -0.37700
C647        C  0.26812106  0.11717238  0.80383367    -0.04300
C648        C  0.26521167  0.07520864  0.79020867    -0.01400
C649        C  0.22309134  0.06230844  0.77855501     0.03500
C650        C  0.18404972  0.09182005  0.77996769    -0.04300
C651        C  0.18731981  0.13460092  0.79273621    -0.01400
C652        C  0.22930110  0.14718124  0.80481156     0.03500
C653        C  0.30625218  0.04647002  0.78703454     0.38200
C654        C  0.14732733  0.16522859  0.79374070     0.38200
C655        C  0.23276128  0.19103274  0.81813081     0.36600
C656        C  0.22025503  0.01923182  0.76442948     0.36600
N657        N  0.23568982  0.22604899  0.82871371    -0.38200
N658        N  0.21780270  0.98500269  0.75309977    -0.38200
N659        N  0.11542298  0.18968015  0.79445968    -0.37700
N660        N  0.33900684  0.02372444  0.78417534    -0.37700
C661        C  0.87348253  0.18251828  0.82254793    -0.04300
C662        C  0.90769185  0.19418592  0.80486190    -0.01400
C663        C  0.92937735  0.15939802  0.79069529     0.03500
C664        C  0.91362300  0.11279512  0.79209630    -0.04300
C665        C  0.87948534  0.10098509  0.80989805    -0.01400
C666        C  0.85939835  0.13586297  0.82507303     0.03500
C667        C  0.91802710  0.24252694  0.79966526     0.38200
C668        C  0.86452067  0.05313649  0.81236244     0.38200
C669        C  0.82296809  0.12420198  0.84255951     0.36600
C670        C  0.96914235  0.17204676  0.77547938     0.36600
N671        N  0.79360603  0.11509123  0.85640506    -0.38200
N672        N  0.00089199  0.18241922  0.76347561    -0.38200
N673        N  0.85279040  0.01489596  0.81443469    -0.37700
N674        N  0.92562442  0.28093865  0.79499913    -0.37700
C675        C  0.75612152  0.30465904  0.81704459    -0.04300
C676        C  0.71870878  0.32727242  0.82905234    -0.01400
C677        C  0.68513590  0.35176248  0.81512654     0.03500
C678        C  0.68533306  0.34920487  0.78883593    -0.04300
C679        C  0.71955336  0.32157562  0.77698458    -0.01400
C680        C  0.75635622  0.30227388  0.79078310     0.03500
C681        C  0.71291420  0.32326169  0.85563568     0.38200
C682        C  0.71665277  0.31141742  0.75058506     0.38200
C683        C  0.79502609  0.28115054  0.77755481     0.36600
C684        C  0.65193667  0.38092157  0.82814901     0.36600
N685        N  0.82546660  0.26432978  0.76671463    -0.38200
N686        N  0.62599102  0.40449172  0.83873379    -0.38200
N687        N  0.71476057  0.30277374  0.72959056    -0.37700
N688        N  0.70649718  0.31937803  0.87669071    -0.37700
C689        C  0.64457759  0.62509250  0.78630501    -0.04300
C690        C  0.64203052  0.66867690  0.77475714    -0.01400
C691        C  0.65879627  0.70850471  0.78719892     0.03500
C692        C  0.67926922  0.70461084  0.81092193    -0.04300
C693        C  0.68081658  0.66124009  0.82275203    -0.01400
C694        C  0.66285856  0.62152932  0.81058195     0.03500
C695        C  0.62130163  0.67261670  0.75026493     0.38200
C696        C  0.70201183  0.65725476  0.84711335     0.38200
C697        C  0.66474611  0.57682151  0.82270437     0.36600
C698        C  0.65514199  0.75356583  0.77559465     0.36600
N699        N  0.66626647  0.54126693  0.83247492    -0.38200
N700        N  0.65199472  0.78955475  0.76641214    -0.38200
N701        N  0.71907107  0.65363596  0.86648848    -0.37700
N702        N  0.60467815  0.67551310  0.73074266    -0.37700
C703        C  0.81760934  0.80824089  0.81152972    -0.04300
C704        C  0.82638505  0.80119334  0.78584729    -0.01400
C705        C  0.87024529  0.81213260  0.77602121     0.03500
C706        C  0.90136748  0.84013948  0.78981458    -0.04300
C707        C  0.89427277  0.84538526  0.81563658    -0.01400
C708        C  0.85364214  0.82719513  0.82664795     0.03500
C709        C  0.79000873  0.78605770  0.76875594     0.38200
C710        C  0.92977708  0.86694931  0.83121732     0.38200
C711        C  0.84963071  0.82744582  0.85349041     0.36600
C712        C  0.88440467  0.79124914  0.75269702     0.36600
N713        N  0.84658447  0.82776354  0.87490077    -0.38200
N714        N  0.89683288  0.77249349  0.73485166    -0.38200
N715        N  0.95793092  0.88419812  0.84374073    -0.37700
N716        N  0.76143301  0.77440038  0.75477992    -0.37700
C717        C  0.45177275  0.05208181  0.90303009    -0.04300
C718        C  0.41668202  0.02840050  0.88949405    -0.01400
C719        C  0.39529655  0.04959314  0.86887136     0.03500
C720        C  0.40287110  0.09755778  0.86404356    -0.04300
C721        C  0.43429677  0.12240337  0.87988405    -0.01400
C722        C  0.46168877  0.09870757  0.89741048     0.03500
C723        C  0.40379586  0.98140902  0.89627999     0.38200
C724        C  0.43740342  0.17262956  0.87941762     0.38200
C725        C  0.50046639  0.12231385  0.90961354     0.36600
C726        C  0.36783764  0.02056099  0.85220712     0.36600
N727        N  0.53163644  0.14084654  0.91923849    -0.38200
N728        N  0.34609427  0.99658115  0.83923240    -0.38200
N729        N  0.44044852  0.21267468  0.87950999    -0.37700
N730        N  0.39379827  0.94388926  0.90166427    -0.37700
C731        C  0.63693400  0.89463031  0.90600792    -0.04300
C732        C  0.65906332  0.91793401  0.88629563    -0.01400
C733        C  0.67905157  0.89242701  0.86656865     0.03500
C734        C  0.68123843  0.84333914  0.86765983    -0.04300
C735        C  0.66277432  0.82056435  0.88867831    -0.01400
C736        C  0.63853942  0.84576636  0.90692746     0.03500
C737        C  0.66062174  0.96826468  0.88621678     0.38200
C738        C  0.66951916  0.77116564  0.89214669     0.38200
C739        C  0.61402939  0.82093139  0.92625765     0.36600
C740        C  0.69545914  0.91693153  0.84485915     0.36600
N741        N  0.59446075  0.80064945  0.94147405    -0.38200
N742        N  0.70848189  0.93674603  0.82760903    -0.38200
N743        N  0.67463222  0.73186794  0.89527810    -0.37700
N744        N  0.66181710  0.00840259  0.88629866    -0.37700
C745        C  0.12403941  0.37423591  0.53073105    -0.04300
C746        C  0.10367687  0.35212806  0.55132345    -0.01400
C747        C  0.13161216  0.32617704  0.56775691     0.03500
C748        C  0.17928176  0.31756712  0.56218885    -0.04300
C749        C  0.19868544  0.33771150  0.54066163    -0.01400
C750        C  0.17225838  0.36860139  0.52627535     0.03500
C751        C  0.05375533  0.35546810  0.55538207     0.38200
C752        C  0.24521090  0.32515959  0.53247794     0.38200
C753        C  0.19510191  0.39536412  0.50713652     0.36600
C754        C  0.11117756  0.30978348  0.59067219     0.36600
N755        N  0.21375647  0.41716698  0.49220250    -0.38200
N756        N  0.09467888  0.29678976  0.60892614    -0.38200
N757        N  0.28213022  0.31485539  0.52581514    -0.37700
N758        N  0.01389219  0.35805791  0.55845573    -0.37700
C759        C  0.96099339  0.55636017  0.53707768    -0.04300
C760        C  0.93477842  0.53507092  0.55600707    -0.01400
C761        C  0.90656047  0.56216747  0.57201317     0.03500
C762        C  0.90070820  0.61041691  0.56775189    -0.04300
C763        C  0.92737374  0.63120103  0.54868004    -0.01400
C764        C  0.96010417  0.60509555  0.53506559     0.03500
C765        C  0.93550429  0.48500733  0.55850306     0.38200
C766        C  0.91735141  0.67773238  0.54046554     0.38200
C767        C  0.99090830  0.62810390  0.51765194     0.36600
C768        C  0.88348880  0.53963398  0.59256969     0.36600
N769        N  0.01542974  0.64641101  0.50376712    -0.38200
N770        N  0.86530407  0.52055724  0.60870081    -0.38200
N771        N  0.90938986  0.71394626  0.53251252    -0.37700
N772        N  0.93605564  0.44507568  0.56050660    -0.37700
C773        C  0.11391635  0.56244767  0.90651728    -0.04300
C774        C  0.13532972  0.54041475  0.88590130    -0.01400
C775        C  0.16133229  0.56657642  0.86856297     0.03500
C776        C  0.17103015  0.61428176  0.87304063    -0.04300
C777        C  0.15057939  0.63581810  0.89412987    -0.01400
C778        C  0.11923973  0.61107896  0.90932790     0.03500
C779        C  0.13138682  0.49054225  0.88259751     0.38200
C780        C  0.16373414  0.68277641  0.90128786     0.38200
C781        C  0.09280889  0.63586172  0.92813543     0.36600
C782        C  0.17688026  0.54423214  0.84583906     0.36600
N783        N  0.07178205  0.65570923  0.94311008    -0.38200
N784        N  0.18917710  0.52632067  0.82771123    -0.38200
N785        N  0.17454427  0.72005921  0.90711925    -0.37700
N786        N  0.12814989  0.45078200  0.87987950    -0.37700
C787        C  0.89235784  0.32306388  0.87627791    -0.04300
C788        C  0.87152743  0.34937849  0.89563937    -0.01400
C789        C  0.89860040  0.38003466  0.91034475     0.03500
C790        C  0.94745505  0.38180809  0.90755398    -0.04300
C791        C  0.96889769  0.35447625  0.88915414    -0.01400
C792        C  0.94162355  0.32635669  0.87309062     0.03500
C793        C  0.82302243  0.34239388  0.90216093     0.38200
C794        C  0.01948713  0.35373823  0.88755020     0.38200
C795        C  0.96552814  0.30066255  0.85376920     0.36600
C796        C  0.87629744  0.40910656  0.92893771     0.36600
N797        N  0.98671668  0.28028067  0.83908159    -0.38200
N798        N  0.85854087  0.43249034  0.94366084    -0.38200
N799        N  0.05980844  0.35289089  0.88648722    -0.37700
N800        N  0.78477478  0.33712655  0.90834057    -0.37700
C801        C  0.64826821  0.09776661  0.57940761    -0.04300
C802        C  0.64566763  0.04863512  0.57794635    -0.01400
C803        C  0.62558174  0.02659201  0.55702086     0.03500
C804        C  0.60157231  0.05278915  0.53900627    -0.04300
C805        C  0.59943629  0.10148175  0.54186298    -0.01400
C806        C  0.62559147  0.12400681  0.56072007     0.03500
C807        C  0.66178277  0.02026532  0.59835824     0.38200
C808        C  0.57029018  0.12852272  0.52537545     0.38200
C809        C  0.63044601  0.17407486  0.55989389     0.36600
C810        C  0.62950240  0.97661321  0.55413025     0.36600
N811        N  0.63401789  0.21402472  0.55893619    -0.38200
N812        N  0.63266830  0.93679423  0.55183446    -0.38200
N813        N  0.54713606  0.15003683  0.51217524    -0.37700
N814        N  0.67448802  0.99756855  0.61462616    -0.37700
C815        C  0.43835335  0.87535144  0.53423944    -0.04300
C816        C  0.46475674  0.84830133  0.55084579    -0.01400
C817        C  0.44252916  0.82503915  0.57045251     0.03500
C818        C  0.39311616  0.82356946  0.57167895    -0.04300
C819        C  0.36681279  0.84893995  0.55403849    -0.01400
C820        C  0.38955395  0.87769544  0.53693572     0.03500
C821        C  0.51502782  0.84523097  0.54807823     0.38200
C822        C  0.31632116  0.84532962  0.55288397     0.38200
C823        C  0.36280425  0.91053780  0.52245466     0.36600
C824        C  0.47085044  0.80550433  0.59011450     0.36600
N825        N  0.34160606  0.93699499  0.51104231    -0.38200
N826        N  0.49339999  0.79032667  0.60591831    -0.38200
N827        N  0.27604717  0.84312127  0.55167078    -0.37700
N828        N  0.55509443  0.84263097  0.54585669    -0.37700
C829        C  0.38713786  0.10713553  0.06343635    -0.04300
C830        C  0.36572275  0.07965268  0.04453105    -0.01400
C831        C  0.39242832  0.04851079  0.03006035     0.03500
C832        C  0.44153694  0.04764200  0.03235938    -0.04300
C833        C  0.46316447  0.07452426  0.05117575    -0.01400
C834        C  0.43618896  0.10305175  0.06703402     0.03500
C835        C  0.31653353  0.08500002  0.03881494     0.38200
C836        C  0.51358803  0.07358760  0.05393731     0.38200
C837        C  0.45980694  0.12769704  0.08703115     0.36600
C838        C  0.36949280  0.01788605  0.01224525     0.36600
N839        N  0.48009211  0.14718787  0.10255515    -0.38200
N840        N  0.35143987  0.99333834  0.99802706    -0.38200
N841        N  0.55375535  0.07271981  0.05620341    -0.37700
N842        N  0.27735334  0.08919667  0.03409363    -0.37700
C843        C  0.37271602  0.24779482  0.11790996    -0.04300
C844        C  0.40712187  0.23705160  0.13564824    -0.01400
C845        C  0.43270211  0.27254653  0.14759465     0.03500
C846        C  0.42114410  0.31989060  0.14386269    -0.04300
C847        C  0.38505201  0.33064637  0.12681399    -0.01400
C848        C  0.36120778  0.29464677  0.11372946     0.03500
C849        C  0.41428459  0.18912441  0.14282464     0.38200
C850        C  0.37110550  0.37843603  0.12337743     0.38200
C851        C  0.32354141  0.30556955  0.09677951     0.36600
C852        C  0.47189260  0.25947465  0.16316621     0.36600
N853        N  0.29318898  0.31425147  0.08340602    -0.38200
N854        N  0.50316037  0.24873749  0.17546377    -0.38200
N855        N  0.35980949  0.41655467  0.12063239    -0.37700
N856        N  0.41932738  0.15106077  0.14888893    -0.37700
C857        C  0.16454986  0.34120591  0.36260369    -0.04300
C858        C  0.11500001  0.34010354  0.36265394    -0.01400
C859        C  0.09001695  0.35650783  0.38339310     0.03500
C860        C  0.11374286  0.37859333  0.40321477    -0.04300
C861        C  0.16288301  0.38194943  0.40273573    -0.01400
C862        C  0.18830257  0.36203902  0.38300046     0.03500
C863        C  0.08930077  0.32406631  0.34092726     0.38200
C864        C  0.18733730  0.40728980  0.42222360     0.38200
C865        C  0.23888238  0.36293644  0.38412768     0.36600
C866        C  0.03963374  0.35131820  0.38423176     0.36600
N867        N  0.27918936  0.36445930  0.38534022    -0.38200
N868        N  0.99947119  0.34716837  0.38498251    -0.38200
N869        N  0.20696861  0.42787267  0.43757568    -0.37700
N870        N  0.06881729  0.31136855  0.32358886    -0.37700
C871        C  0.29638189  0.33552917  0.30052287    -0.04300
C872        C  0.29649208  0.35239110  0.27600417    -0.01400
C873        C  0.33903130  0.36393469  0.26450717     0.03500
C874        C  0.38132742  0.35899510  0.27762964    -0.04300
C875        C  0.38107322  0.34346924  0.30237825    -0.01400
C876        C  0.33876476  0.33080053  0.31361354     0.03500
C877        C  0.25292434  0.35772450  0.26260034     0.38200
C878        C  0.42451803  0.33944821  0.31612110     0.38200
C879        C  0.33909658  0.31040189  0.33813485     0.36600
C880        C  0.33924965  0.38235992  0.23953044     0.36600
N881        N  0.33949958  0.29352476  0.35753329    -0.38200
N882        N  0.33968028  0.39724906  0.21965802    -0.38200
N883        N  0.45911590  0.33645027  0.32712281    -0.37700
N884        N  0.21834295  0.36236581  0.25177248    -0.37700
C885        C  0.67207123  0.10454197  0.37663507    -0.04300
C886        C  0.69397587  0.07802482  0.39547199    -0.01400
C887        C  0.66780713  0.04650308  0.40975616     0.03500
C888        C  0.61859945  0.04647446  0.40853850    -0.04300
C889        C  0.59629487  0.07299792  0.39014223    -0.01400
C890        C  0.62281491  0.10030303  0.37367401     0.03500
C891        C  0.74290192  0.08499145  0.40155431     0.38200
C892        C  0.54573874  0.07189615  0.38793681     0.38200
C893        C  0.59834686  0.12325954  0.35371033     0.36600
C894        C  0.69144710  0.01456004  0.42619768     0.36600
N895        N  0.57706346  0.14136341  0.33833938    -0.38200
N896        N  0.71003987  0.98891434  0.43929702    -0.38200
N897        N  0.50551788  0.07067043  0.38593409    -0.37700
N898        N  0.78183107  0.09051949  0.40662490    -0.37700
C899        C  0.65027102  0.31545044  0.29215718    -0.04300
C900        C  0.68734776  0.32426551  0.30894629    -0.01400
C901        C  0.70594719  0.28771563  0.32325345     0.03500
C902        C  0.68827102  0.24215897  0.32035405    -0.04300
C903        C  0.65144539  0.23353511  0.30350816    -0.01400
C904        C  0.63043054  0.27038978  0.29087666     0.03500
C905        C  0.70709227  0.37054216  0.31104620     0.38200
C906        C  0.63821256  0.18622228  0.29714430     0.38200
C907        C  0.58726396  0.26176941  0.27736666     0.36600
C908        C  0.74451952  0.29642287  0.34015686     0.36600
N909        N  0.55259208  0.25491048  0.26684153    -0.38200
N910        N  0.77545300  0.30316399  0.35359458    -0.38200
N911        N  0.62852866  0.14860974  0.29137787    -0.37700
N912        N  0.72280214  0.40750150  0.31276204    -0.37700
C913        C  0.11815729  0.55480547  0.03685928    -0.04300
C914        C  0.16563291  0.54490651  0.04116056    -0.01400
C915        C  0.19118553  0.57155126  0.05849117     0.03500
C916        C  0.16747647  0.59909747  0.07647768    -0.04300
C917        C  0.11852088  0.60483939  0.07367962    -0.01400
C918        C  0.09571334  0.58769862  0.05224253     0.03500
C919        C  0.18843737  0.50752555  0.02768850     0.38200
C920        C  0.09047494  0.62497666  0.09332436     0.38200
C921        C  0.04863822  0.60273448  0.04653245     0.36600
C922        C  0.24165818  0.57258002  0.05627750     0.36600
N923        N  0.01107996  0.61467829  0.04200831    -0.38200
N924        N  0.28181057  0.57348684  0.05403422    -0.38200
N925        N  0.06791646  0.64065045  0.10905458    -0.37700
N926        N  0.20652495  0.47758832  0.01704052    -0.37700
C927        C  0.38948835  0.57220076  0.15511327    -0.04300
C928        C  0.34736123  0.56282158  0.16754828    -0.01400
C929        C  0.30479299  0.57594872  0.15676131     0.03500
C930        C  0.30473226  0.59924787  0.13387885    -0.04300
C931        C  0.34685422  0.60761399  0.12121232    -0.01400
C932        C  0.38928106  0.59342005  0.13168223     0.03500
C933        C  0.34793115  0.53945051  0.19130281     0.38200
C934        C  0.34657739  0.63258702  0.09794947     0.38200
C935        C  0.43284047  0.60217591  0.11882123     0.36600
C936        C  0.26120733  0.56632837  0.16936368     0.36600
N937        N  0.46759400  0.60913284  0.10859185    -0.38200
N938        N  0.22650807  0.55845578  0.17945269    -0.38200
N939        N  0.34627759  0.65282751  0.07950458    -0.37700
N940        N  0.34869410  0.52087249  0.21024889    -0.37700
C941        C  0.25763783  0.12122969  0.12535389    -0.04300
C942        C  0.21125519  0.13768846  0.12656570    -0.01400
C943        C  0.17865167  0.11650663  0.14260827     0.03500
C944        C  0.19163816  0.07762717  0.15679149    -0.04300
C945        C  0.23768057  0.06035716  0.15494121    -0.01400
C946        C  0.27077380  0.08291787  0.13995735     0.03500
C947        C  0.19685598  0.17597118  0.11108149     0.38200
C948        C  0.25108775  0.01834151  0.16771849     0.38200
C949        C  0.31895604  0.06741286  0.14019936     0.36600
C950        C  0.13222336  0.13577852  0.14527307     0.36600
N951        N  0.35741251  0.05530352  0.14030329    -0.38200
N952        N  0.09529736  0.15126735  0.14768663    -0.38200
N953        N  0.26210644  0.98475233  0.17773213    -0.37700
N954        N  0.18512662  0.20635385  0.09866576    -0.37700
C955        C  0.18676733  0.20333064  0.30692622    -0.04300
C956        C  0.18424130  0.16578583  0.32358109    -0.01400
C957        C  0.16810023  0.12223328  0.31518365     0.03500
C958        C  0.15492317  0.11607559  0.29014298    -0.04300
C959        C  0.15734641  0.15331561  0.27350041    -0.01400
C960        C  0.17345558  0.19681975  0.28180240     0.03500
C961        C  0.19877235  0.17167471  0.34925749     0.38200
C962        C  0.14060493  0.14756450  0.24815976     0.38200
C963        C  0.17475312  0.23504847  0.26448981     0.36600
C964        C  0.16539616  0.08365890  0.33226062     0.36600
N965        N  0.17582786  0.26498385  0.25035101    -0.38200
N966        N  0.16322329  0.05298905  0.34592638    -0.38200
N967        N  0.12684275  0.14290007  0.22806969    -0.37700
N968        N  0.21005077  0.17647984  0.36976735    -0.37700
C969        C  0.88739572  0.08467024  0.29302783    -0.04300
C970        C  0.84538447  0.05873454  0.29437683    -0.01400
C971        C  0.80640495  0.07710769  0.30678872     0.03500
C972        C  0.80982727  0.12032704  0.31929705    -0.04300
C973        C  0.85291854  0.14467029  0.31938999    -0.01400
C974        C  0.89141277  0.12704949  0.30607258     0.03500
C975        C  0.84214426  0.01262837  0.28335806     0.38200
C976        C  0.85772840  0.18794711  0.33313182     0.38200
C977        C  0.93484034  0.15305430  0.30523472     0.36600
C978        C  0.76218042  0.05230605  0.30559640     0.36600
N979        N  0.96953781  0.17370443  0.30449913    -0.38200
N980        N  0.72693294  0.03257055  0.30468265    -0.38200
N981        N  0.86161963  0.22253788  0.34402970    -0.37700
N982        N  0.83936812  0.97584186  0.27466625    -0.37700
C983        C  0.16874116  0.81406585  0.16347408    -0.04300
C984        C  0.16374536  0.81008923  0.13732616    -0.01400
C985        C  0.18003615  0.77031582  0.12458301     0.03500
C986        C  0.19693734  0.73190347  0.13801887    -0.04300
C987        C  0.20206958  0.73638890  0.16416746    -0.01400
C988        C  0.19304572  0.77890887  0.17610305     0.03500
C989        C  0.14429668  0.84794740  0.12311690     0.38200
C990        C  0.21480027  0.69709968  0.17945965     0.38200
C991        C  0.21313988  0.78690092  0.20045165     0.36600
C992        C  0.18043407  0.76986199  0.09765538     0.36600
N993        N  0.23212718  0.79271978  0.21921795    -0.38200
N994        N  0.18061819  0.76953990  0.07617801    -0.38200
N995        N  0.22489694  0.66631377  0.19199009    -0.37700
N996        N  0.12880518  0.87800460  0.11167465    -0.37700
C997        C  0.91043911  0.32058720  0.07213964    -0.04300
C998        C  0.88614293  0.33606475  0.05088645    -0.01400
C999        C  0.90906214  0.36362924  0.03314344     0.03500
C1000       C  0.95789161  0.37099866  0.03465066    -0.04300
C1001       C  0.98296391  0.35171093  0.05468144    -0.01400
C1002       C  0.95907523  0.32916539  0.07401912     0.03500
C1003       C  0.83798547  0.32217374  0.04665520     0.38200
C1004       C  0.03348538  0.35536730  0.05553394     0.38200
C1005       C  0.98455068  0.31665680  0.09627552     0.36600
C1006       C  0.88192873  0.38534970  0.01371144     0.36600
N1007       N  0.00479402  0.30678580  0.11406712    -0.38200
N1008       N  0.86006228  0.40275439  0.99832931    -0.38200
N1009       N  0.07376127  0.35839107  0.05620611    -0.37700
N1010       N  0.79980754  0.31063274  0.04301380    -0.37700
C1011       C  0.89875246  0.19226966  0.13448856    -0.04300
C1012       C  0.91348881  0.19407201  0.15958114    -0.01400
C1013       C  0.93057995  0.15393145  0.17110048     0.03500
C1014       C  0.93421471  0.11219192  0.15743340    -0.04300
C1015       C  0.91941379  0.11022734  0.13244274    -0.01400
C1016       C  0.90117620  0.15006755  0.12107054     0.03500
C1017       C  0.91157500  0.23736044  0.17353063     0.38200
C1018       C  0.92103089  0.06667614  0.11876269     0.38200
C1019       C  0.88298773  0.14714495  0.09594046     0.36600
C1020       C  0.94518906  0.15578197  0.19692319     0.36600
N1021       N  0.86820119  0.14489720  0.07595295    -0.38200
N1022       N  0.95665984  0.15714148  0.21753268    -0.38200
N1023       N  0.92216431  0.03187220  0.10790810    -0.37700
N1024       N  0.90978404  0.27182303  0.18467121    -0.37700
C1025       C  0.77955703  0.31644290  0.13430708    -0.04300
C1026       C  0.73681130  0.29175327  0.13326534    -0.01400
C1027       C  0.69713232  0.30947725  0.14532133     0.03500
C1028       C  0.69951566  0.35281662  0.15753911    -0.04300
C1029       C  0.74192163  0.37790006  0.15832516    -0.01400
C1030       C  0.78225169  0.35907794  0.14735919     0.03500
C1031       C  0.73348413  0.24835265  0.11949576     0.38200
C1032       C  0.74421855  0.42263767  0.17087972     0.38200
C1033       C  0.82689728  0.38235520  0.15059218     0.36600
C1034       C  0.65347254  0.28374611  0.14459269     0.36600
N1035       N  0.86260773  0.40059555  0.15344543    -0.38200
N1036       N  0.61862143  0.26328987  0.14415336    -0.38200
N1037       N  0.74582701  0.45835892  0.18083970    -0.37700
N1038       N  0.73090203  0.21373365  0.10852120    -0.37700
C1039       C  0.38963548  0.81788549  0.37169493    -0.04300
C1040       C  0.39149810  0.86687970  0.36935691    -0.01400
C1041       C  0.41797056  0.89400244  0.38634277     0.03500
C1042       C  0.44628648  0.87242063  0.40432713    -0.04300
C1043       C  0.44932493  0.82359427  0.40444986    -0.01400
C1044       C  0.41873412  0.79659582  0.38971222     0.03500
C1045       C  0.36761425  0.88963785  0.34909439     0.38200
C1046       C  0.48294915  0.80111221  0.42053712     0.38200
C1047       C  0.41599045  0.74705210  0.39422069     0.36600
C1048       C  0.41589563  0.94422899  0.38540477     0.36600
N1049       N  0.41400934  0.70756448  0.39781618    -0.38200
N1050       N  0.41447295  0.98430912  0.38465149    -0.38200
N1051       N  0.50977624  0.78329751  0.43336866    -0.37700
N1052       N  0.34870536  0.90788632  0.33290058    -0.37700
C1053       C  0.15942532  0.82872716  0.30192535    -0.04300
C1054       C  0.16787404  0.83397815  0.32763845    -0.01400
C1055       C  0.20568591  0.81032454  0.33878972     0.03500
C1056       C  0.23863273  0.78642732  0.32379050    -0.04300
C1057       C  0.22792798  0.77980541  0.29815978    -0.01400
C1058       C  0.18577487  0.79642415  0.28843992     0.03500
C1059       C  0.13894316  0.86431928  0.34257153     0.38200
C1060       C  0.26145692  0.76043323  0.28085361     0.38200
C1061       C  0.16769399  0.77884329  0.26499239     0.36600
C1062       C  0.21026897  0.81051373  0.36558686     0.36600
N1063       N  0.15111954  0.76407923  0.24695471    -0.38200
N1064       N  0.21362600  0.81045526  0.38699356    -0.38200
N1065       N  0.28829131  0.74547369  0.26694125    -0.37700
N1066       N  0.11601347  0.88845501  0.35467466    -0.37700
C1067       C  0.37334081  0.68016825  0.31562028    -0.04300
C1068       C  0.40625361  0.69143497  0.29723108    -0.01400
C1069       C  0.43063149  0.65616018  0.28474991     0.03500
C1070       C  0.41901678  0.60876741  0.28867600    -0.04300
C1071       C  0.38494416  0.59763919  0.30669571    -0.01400
C1072       C  0.36324528  0.63325994  0.32061725     0.03500
C1073       C  0.41481029  0.73967526  0.29089174     0.38200
C1074       C  0.37139632  0.54980210  0.31077042     0.38200
C1075       C  0.33151201  0.62173432  0.34056961     0.36600
C1076       C  0.46946892  0.66948119  0.26902674     0.36600
N1077       N  0.30651529  0.61270452  0.35666143    -0.38200
N1078       N  0.50065100  0.68046811  0.25676645    -0.38200
N1079       N  0.36036838  0.51169576  0.31412161    -0.37700
N1080       N  0.42146034  0.77807995  0.28584534    -0.37700
C1081       C  0.62313408  0.88407137  0.03321054    -0.04300
C1082       C  0.64536697  0.90563236  0.05366433    -0.01400
C1083       C  0.67122026  0.87899709  0.07072225     0.03500
C1084       C  0.67870159  0.83089537  0.06631371    -0.04300
C1085       C  0.65712323  0.80977253  0.04529125    -0.01400
C1086       C  0.62736736  0.83566374  0.02984067     0.03500
C1087       C  0.64196766  0.95550877  0.05702467     0.38200
C1088       C  0.66668885  0.76177666  0.03877345     0.38200
C1089       C  0.59996214  0.81222691  0.01080020     0.36600
C1090       C  0.68866172  0.90150556  0.09307455     0.36600
N1091       N  0.57736113  0.79330066  0.99600372    -0.38200
N1092       N  0.70221457  0.92041393  0.11072151    -0.38200
N1093       N  0.67427472  0.72353776  0.03350073    -0.37700
N1094       N  0.63918979  0.99529356  0.05961907    -0.37700
C1095       C  0.69153503  0.69196049  0.12181909    -0.04300
C1096       C  0.71535142  0.64903802  0.12117352    -0.01400
C1097       C  0.69791891  0.61073597  0.13447820     0.03500
C1098       C  0.65620633  0.61487964  0.14807197    -0.04300
C1099       C  0.63048957  0.65672020  0.14706931    -0.01400
C1100       C  0.64862415  0.69535892  0.13452303     0.03500
C1101       C  0.75792841  0.64434047  0.10689810     0.38200
C1102       C  0.58508547  0.66035883  0.15884432     0.38200
C1103       C  0.62401657  0.73927771  0.13577820     0.36600
C1104       C  0.72373655  0.56759118  0.13492039     0.36600
N1105       N  0.60446589  0.77429735  0.13670261    -0.38200
N1106       N  0.74435708  0.53317767  0.13530080    -0.38200
N1107       N  0.54895694  0.66350479  0.16824774    -0.37700
N1108       N  0.79187535  0.64059290  0.09548999    -0.37700
C1109       C  0.81467061  0.81310720  0.12498554    -0.04300
C1110       C  0.86056344  0.79818131  0.12015358    -0.01400
C1111       C  0.89832794  0.81542265  0.13457949     0.03500
C1112       C  0.89058203  0.84917584  0.15337253    -0.04300
C1113       C  0.84410698  0.86489860  0.15756915    -0.01400
C1114       C  0.80648918  0.84537689  0.14420427     0.03500
C1115       C  0.86857808  0.76413832  0.10068326     0.38200
C1116       C  0.83403232  0.90204217  0.17514855     0.38200
C1117       C  0.75890106  0.85659531  0.15126709     0.36600
C1118       C  0.94463081  0.79676027  0.13067399     0.36600
N1119       N  0.72113232  0.86493110  0.15735351    -0.38200
N1120       N  0.98146702  0.78152863  0.12752514    -0.38200
N1121       N  0.82567300  0.93167415  0.18906399    -0.37700
N1122       N  0.87471262  0.73696213  0.08511073    -0.37700
C1123       C  0.90002493  0.60751987  0.37152772    -0.04300
C1124       C  0.94887319  0.61406288  0.37491662    -0.01400
C1125       C  0.97206677  0.59239057  0.39471145     0.03500
C1126       C  0.94950658  0.55684808  0.40799290    -0.04300
C1127       C  0.90201311  0.54717518  0.40322401    -0.01400
C1128       C  0.87644137  0.57560376  0.38710005     0.03500
C1129       C  0.97643910  0.64044016  0.35738017     0.38200
C1130       C  0.87933833  0.50807092  0.41506704     0.38200
C1131       C  0.82584371  0.57308003  0.38766043     0.36600
C1132       C  0.01968446  0.60570110  0.40089295     0.36600
N1133       N  0.78550558  0.57107202  0.38826296    -0.38200
N1134       N  0.05767711  0.61625305  0.40574327    -0.38200
N1135       N  0.86149582  0.47675724  0.42448064    -0.37700
N1136       N  0.99855144  0.66130497  0.34338307    -0.37700
C1137       C  0.69506360  0.57482414  0.28216788    -0.04300
C1138       C  0.69120284  0.61617071  0.29605048    -0.01400
C1139       C  0.73027797  0.63375621  0.30881268     0.03500
C1140       C  0.77397350  0.61151147  0.30644920    -0.04300
C1141       C  0.77801167  0.57072270  0.29195242    -0.01400
C1142       C  0.73812412  0.55153748  0.28048147     0.03500
C1143       C  0.64668971  0.63983296  0.29783452     0.38200
C1144       C  0.82324108  0.54943581  0.28814895     0.38200
C1145       C  0.74130266  0.50796448  0.26688304     0.36600
C1146       C  0.72523524  0.67406206  0.32495269     0.36600
N1147       N  0.74357318  0.47302037  0.25621443    -0.38200
N1148       N  0.72150943  0.70609444  0.33788845    -0.38200
N1149       N  0.85934735  0.53260541  0.28495543    -0.37700
N1150       N  0.61127940  0.65882614  0.29921501    -0.37700
C1151       C  0.88368626  0.74248828  0.31433314    -0.04300
C1152       C  0.87915173  0.78577858  0.32641486    -0.01400
C1153       C  0.89477258  0.82624768  0.31455970     0.03500
C1154       C  0.91429589  0.82327413  0.29059272    -0.04300
C1155       C  0.91972650  0.77995058  0.27874462    -0.01400
C1156       C  0.90480163  0.73953955  0.29067719     0.03500
C1157       C  0.85735984  0.78880832  0.35062206     0.38200
C1158       C  0.94190365  0.77674897  0.25459693     0.38200
C1159       C  0.91144230  0.69472689  0.27865039     0.36600
C1160       C  0.88964382  0.87112272  0.32665839     0.36600
N1161       N  0.91641000  0.65895785  0.26911497    -0.38200
N1162       N  0.88558331  0.90702437  0.33617963    -0.40200
N1163       N  0.95959804  0.77412874  0.23536287    -0.37700
N1164       N  0.84001134  0.79133510  0.36994713    -0.37700
loop_ 
_geom_bond_atom_site_label_1 
_geom_bond_atom_site_label_2 
_geom_bond_distance 
_geom_bond_site_symmetry_2 
_ccdc_geom_bond_type 
C1            C2   1.399       .  A
C1            C6   1.389       .  A
C1         C1140   1.475       .  S
C2            C3   1.410       .  A
C2            H7   1.082       .  S
C3            C4   1.411       .  A
C3         C1123   1.501       .  S
C4            C5   1.399       .  A
C4            H8   1.082       .  S
C5            C6   1.390       .  A
C5         C1151   1.473       .  S
C6            H9   1.085       .  S
C10          C11   1.404       .  A
C10          C15   1.399       .  A
C10        C1095   1.489       .  S
C11          C12   1.408       .  A
C11          H16   1.083       .  S
C12          C13   1.411       .  A
C12        C1084   1.506       .  S
C13          C14   1.406       .  A
C13          H17   1.083       .  S
C14          C15   1.397       .  A
C14        C1109   1.484       .  S
C15          H18   1.084       .  S
C19          C20   1.396       .  A
C19          C24   1.396       .  A
C19        C1067   1.483       .  S
C20          C21   1.401       .  A
C20          H25   1.084       .  S
C21          C22   1.414       .  A
C21        C1039   1.506       .  S
C22          C23   1.416       .  A
C22          H26   1.080       .  S
C23          C24   1.407       .  A
C23        C1056   1.508       .  S
C24          H27   1.083       .  S
C28          C29   1.403       .  A
C28          C33   1.396       .  A
C28        C1011   1.483       .  S
C29          C30   1.407       .  A
C29          H34   1.083       .  S
C30          C31   1.409       .  A
C30         C997   1.498       .  S
C31          C32   1.404       .  A
C31          H35   1.084       .  S
C32          C33   1.395       .  A
C32        C1025   1.482       .  S
C33          H36   1.085       .  S
C37          C74   1.462       .  S
C37        C1053   1.487       .  S
C37          N55   1.351       .  A
N38          N55   1.320       .  A
N38          N60   1.319       .  A
N38         Co75   2.085       .  S
C39          C77   1.455       .  S
C39          H84   1.082       .  S
C39          N64   1.333       .  A
H40          C81   1.081       .  S
C41          C45   1.475       .  S
C41          H70   1.081       .  S
C41          N65   1.349       .  A
Co42         N60   2.079       .  S
Co42         N50   2.049   1_455  S
Co42         N82   2.054   1_565  S
Co42         N58   2.088   1_465  S
Co42        Cl86   2.469       .  S
N43          C81   1.340       .  A
N43          N50   1.319       .  A
N43         Co44   2.084       .  S
Co44         N47   2.061       .  S
Co44         N64   2.062   1_565  S
Co44         N51   2.087   1_565  S
Co44        Cl86   2.415   1_655  S
C45        C1112   1.500       .  S
C45          N83   1.343       .  A
N46          N53   1.320       .  A
N46          N76   1.321       .  A
N46         Co79   2.079       .  S
N47          N65   1.317       .  A
N47          N83   1.316       .  A
N48          C77   1.354       .  A
N48          N58   1.326       .  A
H49          C74   1.081       .  S
N50          N71   1.319       .  A
N51          N69   1.320       .  A
N51          N56   1.324       .  A
C52          C80   1.454       .  S
C52        C1014   1.473       .  S
C52          N56   1.348       .  A
N53          C68   1.339       .  A
N53         Co75   2.089       .  S
C54          C57   1.449       .  S
C54          H88   1.082       .  S
C54          N82   1.334       .  A
C57         C958   1.465       .  S
C57          N78   1.349       .  A
N58          N64   1.317       .  A
N59          C85   1.338       .  A
N59          N61   1.320       .  A
N59         Co75   2.077   1_545  S
N60          C74   1.344       .  A
N61          N89   1.327       .  A
N61         Co79   2.096   1_545  S
H62          C85   1.082       .  S
H63          C80   1.082   1_455  S
N65         Co79   2.100   1_655  S
N66          N78   1.322       .  A
N66          N82   1.320       .  A
N66         Co75   2.086   1_545  S
C67          C81   1.458       .  S
C67        C1154   1.464       .  S
C67          N71   1.341       .  A
C68          C87   1.468       .  S
C68          H72   1.078       .  S
N69          C80   1.338       .  A
N69         Co79   2.068   1_645  S
C73          C85   1.460       .  S
C73         C944   1.489       .  S
C73          N89   1.353       .  A
Co75        Cl86   2.429       .  S
N76          C87   1.351       .  A
C77         C969   1.482       .  S
Co79        Cl86   2.469       .  S
C87         C983   1.496       .  S
C90          C91   1.389       .  A
C90          C95   1.393       .  A
C90         C930   1.467       .  S
C91          C92   1.396       .  A
C91          H96   1.084       .  S
C92          C93   1.410       .  A
C92         C986   1.500       .  S
C93          C94   1.415       .  A
C93          H97   1.077       .  S
C94          C95   1.407       .  A
C94         C916   1.507       .  S
C95          H98   1.083       .  S
C99         C100   1.398       .  A
C99         C104   1.405       .  A
C99         C972   1.491       .  S
C100        C101   1.396       .  A
C100        H105   1.084       .  S
C101        C102   1.407       .  A
C101        C902   1.485       .  S
C102        C103   1.412       .  A
C102        H106   1.082       .  S
C103        C104   1.409       .  A
C103        C885   1.511       .  S
C104        H107   1.082       .  S
C108        C109   1.410       .  A
C108        C113   1.405       .  A
C108        C857   1.498       .  S
C109        C110   1.405       .  A
C109        H114   1.083       .  S
C110        C111   1.393       .  A
C110        C871   1.476       .  S
C111        C112   1.394       .  A
C111        H115   1.085       .  S
C112        C113   1.399       .  A
C112        C955   1.480       .  S
C113        H116   1.083       .  S
C117        C118   1.412       .  A
C117        C122   1.408       .  A
C117        C829   1.511       .  S
C118        C119   1.409       .  A
C118        H123   1.083       .  S
C119        C120   1.401       .  A
C119        C843   1.490       .  S
C120        C121   1.401       .  A
C120        H124   1.084       .  S
C121        C122   1.406       .  A
C121        C941   1.493       .  S
C122        H125   1.083       .  S
C126        C163   1.447       .  S
C126       C1137   1.462       .  S
C126        N144   1.348       .  A
N127        N144   1.323       .  A
N127        N149   1.321       .  A
N127       Co164   2.090       .  S
C128        C166   1.462       .  S
C128        H173   1.081       .  S
C128        N153   1.343       .  A
H129        C170   1.082       .  S
C130        C134   1.448       .  S
C130        H159   1.082       .  S
C130        N154   1.334       .  A
Co131       N149   2.054       .  S
Co131       N139   2.083       .  S
Co131       N171   2.087       .  S
Co131       N147   2.052       .  S
Co131      Cl175   2.470       .  S
N132        C170   1.334       .  A
N132        N139   1.316       .  A
N132       Co133   2.070       .  S
Co133       N136   2.104       .  S
Co133       N153   2.105       .  S
Co133       N140   2.067       .  S
Co133      Cl175   2.416       .  S
C134       C1028   1.471       .  S
C134        N172   1.352       .  A
N135        N142   1.316       .  A
N135        N165   1.327       .  A
N135       Co168   2.093       .  S
N136        N154   1.322       .  A
N136        N172   1.326       .  A
N137        C166   1.341       .  A
N137        N147   1.318       .  A
H138        C163   1.082       .  S
N139        N160   1.328       .  A
N140        N158   1.316       .  A
N140        N145   1.319       .  A
C141        C169   1.473       .  S
C141        C846   1.500       .  S
C141        N145   1.346       .  A
N142        C157   1.332       .  A
N142       Co164   2.056       .  S
C143        C146   1.470       .  S
C143        H177   1.081       .  S
C143        N171   1.345       .  A
C146       C1070   1.493       .  S
C146        N167   1.346       .  A
N147        N153   1.322       .  A
N148        C174   1.338       .  A
N148        N150   1.322       .  A
N148       Co164   2.089       .  S
N149        C163   1.334       .  A
N150        N178   1.319       .  A
N150       Co168   2.053       .  S
H151        C174   1.081       .  S
H152        C169   1.081       .  S
N154       Co168   2.057       .  S
N155        N167   1.318       .  A
N155        N171   1.315       .  A
N155       Co164   2.059       .  S
C156        C170   1.459       .  S
C156        C899   1.489       .  S
C156        N160   1.353       .  A
C157        C176   1.454       .  S
C157        H161   1.082       .  S
N158        C169   1.350       .  A
N158       Co168   2.100       .  S
C162        C174   1.456       .  S
C162        C927   1.460       .  S
C162        N178   1.341       .  A
Co164      Cl175   2.415       .  S
N165        C176   1.355       .  A
C166        C874   1.470       .  S
Co168      Cl175   2.471       .  S
C176       C1098   1.483       .  S
N179        C184   1.353       .  A
N179        C183   1.354       .  A
N179        H211   1.037       .  S
N180        C187   1.354       .  A
N180        C188   1.351       .  A
N181        C186   1.357       .  A
N181        C185   1.356       .  A
N181        H212   1.037       .  S
N182        C189   1.351       .  A
N182        C190   1.351       .  A
C183        C191   1.387       .  A
C183        C199   1.416   1_565  A
C184        C200   1.413       .  A
C184        C192   1.386       .  A
C185        C193   1.388       .  A
C185        C202   1.422   1_565  A
C186        C201   1.419       .  A
C186        C194   1.386       .  A
C187        C199   1.418       .  A
C187        C195   1.385       .  A
C188        C202   1.422       .  A
C188        C196   1.388       .  A
C189        C197   1.386       .  A
C189        C200   1.414       .  A
C190        C198   1.388       .  A
C190        C201   1.418       .  A
C191        C192   1.369       .  A
C191        H203   1.082   1_565  S
C192        H204   1.082       .  S
C193        C194   1.375       .  A
C193        H205   1.082       .  S
C194        H206   1.082       .  S
C195        C196   1.367       .  A
C195        H207   1.081       .  S
C196        H208   1.081       .  S
C197        C198   1.366       .  A
C197        H209   1.081       .  S
C198        H210   1.081       .  S
C199        C804   1.505       .  S
C200        C815   1.495       .  S
C201       C1042   1.504       .  S
C202        C888   1.506       .  S
N213        C218   1.356       .  A
N213        C217   1.351       .  A
N213        H245   1.037   1_554  S
N214        C221   1.354       .  A
N214        C222   1.356       .  A
N215        C220   1.353       .  A
N215        C219   1.354       .  A
N215        H246   1.039       .  S
N216        C223   1.350       .  A
N216        C224   1.347       .  A
C217        C225   1.391       .  A
C217        C233   1.421       .  A
C218        C234   1.416   1_455  A
C218        C226   1.383       .  A
C219        C227   1.387       .  A
C219        C236   1.420       .  A
C220        C235   1.417   1_455  A
C220        C228   1.386   1_455  A
C221        C233   1.424   1_556  A
C221        C229   1.388       .  A
C222        C236   1.422       .  A
C222        C230   1.385       .  A
C223        C231   1.385       .  A
C223        C234   1.409   1_556  A
C224        C232   1.387       .  A
C224        C235   1.409       .  A
C225        C226   1.371       .  A
C225        H237   1.079       .  S
C226        H238   1.082   1_455  S
C227        C228   1.381   1_455  A
C227        H239   1.082       .  S
C228        H240   1.082       .  S
C229        C230   1.369       .  A
C229        H241   1.081       .  S
C230        H242   1.082       .  S
C231        C232   1.371       .  A
C231        H243   1.082       .  S
C232        H244   1.082       .  S
C233        C913   1.499       .  S
C234       C1000   1.506       .  S
C235        C790   1.494       .  S
C236        C773   1.517       .  S
N247        C252   1.351       .  A
N247        C251   1.352       .  A
N247        H279   1.039       .  S
N248        C255   1.350       .  A
N248        C256   1.349       .  A
N249        C254   1.353       .  A
N249        C253   1.354       .  A
N249        H280   1.039       .  S
N250        C257   1.353       .  A
N250        C258   1.352       .  A
C251        C259   1.386       .  A
C251        C267   1.413       .  A
C252        C268   1.417   1_455  A
C252        C260   1.390       .  A
C253        C261   1.387       .  A
C253        C270   1.419       .  A
C254        C269   1.416   1_455  A
C254        C262   1.386       .  A
C255        C267   1.409       .  A
C255        C263   1.384       .  A
C256        C270   1.413       .  A
C256        C264   1.388       .  A
C257        C265   1.387       .  A
C257        C268   1.417       .  A
C258        C266   1.387       .  A
C258        C269   1.418       .  A
C259        C260   1.370       .  A
C259        H271   1.082       .  S
C260        H272   1.080       .  S
C261        C262   1.380       .  A
C261        H273   1.082       .  S
C262        H274   1.082       .  S
C263        C264   1.373       .  A
C263        H275   1.082       .  S
C264        H276   1.082       .  S
C265        C266   1.367       .  A
C265        H277   1.081       .  S
C266        H278   1.082       .  S
C267        C860   1.496       .  S
C268       C1126   1.495       .  S
C269        C759   1.505       .  S
C270        C745   1.502       .  S
N281        C286   1.352       .  A
N281        C285   1.353       .  A
N281        H313   1.035       .  S
N282        C289   1.354       .  A
N282        C290   1.353       .  A
N283        C288   1.354       .  A
N283        C287   1.353       .  A
N283        H314   1.037   1_554  S
N284        C291   1.350       .  A
N284        C292   1.350       .  A
C285        C293   1.389       .  A
C285        C301   1.417   1_565  A
C286        C302   1.415       .  A
C286        C294   1.386       .  A
C287        C295   1.386       .  A
C287        C304   1.418   1_565  A
C288        C303   1.418       .  A
C288        C296   1.387       .  A
C289        C301   1.417       .  A
C289        C297   1.386       .  A
C290        C304   1.417   1_556  A
C290        C298   1.386       .  A
C291        C299   1.385       .  A
C291        C302   1.411       .  A
C292        C300   1.387       .  A
C292        C303   1.413   1_556  A
C293        C294   1.372       .  A
C293        H305   1.081       .  S
C294        H306   1.082       .  S
C295        C296   1.381       .  A
C295        H307   1.082       .  S
C296        H308   1.082       .  S
C297        C298   1.369       .  A
C297        H309   1.081       .  S
C298        H310   1.082       .  S
C299        C300   1.373       .  A
C299        H311   1.082       .  S
C300        H312   1.082       .  S
C301        C717   1.500       .  S
C302        C731   1.497       .  S
C303       C1081   1.501       .  S
C304        C832   1.506       .  S
C315        C316   1.401       .  A
C315        C320   1.407       .  A
C315        C703   1.494       .  S
C316        C317   1.393       .  A
C316        H321   1.084       .  S
C317        C318   1.396       .  A
C317        C692   1.475       .  S
C318        C319   1.406       .  A
C318        H322   1.084       .  S
C319        C320   1.405       .  A
C319        C734   1.495       .  S
C320        H323   1.081       .  S
C324        C325   1.401       .  A
C324        C329   1.409       .  A
C324        C675   1.497       .  S
C325        C326   1.395       .  A
C325        H330   1.084       .  S
C326        C327   1.403       .  A
C326        C661   1.484       .  S
C327        C328   1.408       .  A
C327        H331   1.082       .  S
C328        C329   1.413       .  A
C328        C787   1.507       .  S
C329        H332   1.083       .  S
C333        C334   1.413       .  A
C333        C338   1.415       .  A
C333        C720   1.513       .  S
C334        C335   1.401       .  A
C334        H339   1.082       .  S
C335        C336   1.389       .  A
C335        C636   1.475       .  S
C336        C337   1.391       .  A
C336        H340   1.085       .  S
C337        C338   1.406       .  A
C337        C647   1.479       .  S
C338        H341   1.081       .  S
C342        C343   1.401       .  A
C342        C347   1.403       .  A
C342        C622   1.496       .  S
C343        C344   1.408       .  A
C343        H348   1.083       .  S
C344        C345   1.414       .  A
C344        C605   1.510       .  S
C345        C346   1.413       .  A
C345        H349   1.081       .  S
C346        C347   1.406       .  A
C346        C776   1.512       .  S
C347        H350   1.083       .  S
C351        C352   1.407       .  A
C351        C356   1.407       .  A
C351        C748   1.503       .  S
C352        C353   1.404       .  A
C352        H357   1.083       .  S
C353        C354   1.400       .  A
C353        C591   1.496       .  S
C354        C355   1.404       .  A
C354        H358   1.084       .  S
C355        C356   1.406       .  A
C355        C580   1.496       .  S
C356        H359   1.082       .  S
C360        C361   1.390       .  A
C360        C365   1.402       .  A
C360        C549   1.474       .  S
C361        C362   1.393       .  A
C361        H366   1.085       .  S
C362        C363   1.403       .  A
C362        C563   1.482       .  S
C363        C364   1.412       .  A
C363        H367   1.083       .  S
C364        C365   1.410       .  A
C364        C801   1.506       .  S
C365        H368   1.082       .  S
C369        C406   1.470       .  S
C369        C608   1.503       .  S
C369        N387   1.352       .  A
N370        N387   1.323       .  A
N370        N392   1.318       .  A
N370       Co407   2.083       .  S
C371        C409   1.459       .  S
C371        H416   1.081       .  S
C371        N396   1.334       .  A
H372        C413   1.082       .  S
C373        C377   1.473       .  S
C373        H402   1.081       .  S
C373        N397   1.348       .  A
Co374       N392   2.092       .  S
Co374       N382   2.072       .  S
Co374       N414   2.067       .  S
Co374       N390   2.089       .  S
Co374      Cl418   2.463       .  S
N375        C413   1.340       .  A
N375        N382   1.322       .  A
N375       Co376   2.090       .  S
Co376       N379   2.074       .  S
Co376       N396   2.063       .  S
Co376       N383   2.103       .  S
Co376      Cl418   2.428       .  S
C377        C535   1.506       .  S
C377        N415   1.348       .  A
N378        N385   1.324       .  A
N378        N408   1.320       .  A
N378       Co411   2.065       .  S
N379        N397   1.317       .  A
N379        N415   1.319       .  A
N380        C409   1.355       .  A
N380        N390   1.327       .  A
H381        C406   1.080       .  S
N382        N403   1.322       .  A
N383        N401   1.322       .  A
N383        N388   1.327       .  A
C384        C412   1.446       .  S
C384        C552   1.468       .  S
C384        N388   1.351       .  A
N385        C400   1.341       .  A
N385       Co407   2.097       .  S
C386        C389   1.451       .  S
C386        H420   1.082       .  S
C386        N414   1.336       .  A
C389        C633   1.469       .  S
C389        N410   1.348       .  A
N390        N396   1.316       .  A
N391        C417   1.336       .  A
N391        N393   1.317       .  A
N391       Co407   2.070       .  S
N392        C406   1.345       .  A
N393        N421   1.328       .  A
N393       Co411   2.090       .  S
H394        C417   1.082       .  S
H395        C412   1.081       .  S
N397       Co411   2.093       .  S
N398        N410   1.324       .  A
N398        N414   1.321       .  A
N398       Co407   2.085       .  S
C399        C413   1.459       .  S
C399        C689   1.472       .  S
C399        N403   1.345       .  A
C400        C419   1.459       .  S
C400        H404   1.081       .  S
N401        C412   1.333       .  A
N401       Co411   2.055       .  S
C405        C417   1.458       .  S
C405        C594   1.486       .  S
C405        N421   1.353       .  A
Co407      Cl418   2.433       .  S
N408        C419   1.343       .  A
C409        C678   1.496       .  S
Co411      Cl418   2.469       .  S
C419        C524   1.467       .  S
C422        C423   1.406       .  A
C422        C427   1.397       .  A
C422        C538   1.491       .  S
C423        C424   1.412       .  A
C423        H428   1.083       .  S
C424        C425   1.412       .  A
C424        C762   1.509       .  S
C425        C426   1.409       .  A
C425        H429   1.083       .  S
C426        C427   1.404       .  A
C426        C507   1.500       .  S
C427        H430   1.084       .  S
C431        C432   1.390       .  A
C431        C436   1.392       .  A
C431        C493   1.466       .  S
C432        C433   1.394       .  A
C432        H437   1.085       .  S
C433        C434   1.404       .  A
C433        C521   1.476       .  S
C434        C435   1.411       .  A
C434        H438   1.083       .  S
C435        C436   1.403       .  A
C435        C818   1.496       .  S
C436        H439   1.083       .  S
C440        C477   1.459       .  S
C440        C706   1.483       .  S
C440        N458   1.351       .  A
N441        N458   1.322       .  A
N441        N463   1.319       .  A
N441       Co478   2.082   1_655  S
C442        C480   1.461       .  S
C442        H487   1.080       .  S
C442        N467   1.343       .  A
H443        C484   1.082       .  S
C444        C448   1.451       .  S
C444        H473   1.082   1_545  S
C444        N468   1.336       .  A
Co445       N463   2.061   1_455  S
Co445       N453   2.086   1_465  S
Co445       N485   2.091       .  S
Co445       N461   2.061   1_565  S
Co445      Cl489   2.457       .  S
N446        C484   1.334       .  A
N446        N453   1.318       .  A
N446       Co447   2.071   1_655  S
Co447       N450   2.084   1_455  S
Co447       N467   2.096       .  S
Co447       N454   2.079       .  S
Co447      Cl489   2.435   1_545  S
C448        C566   1.472       .  S
C448        N486   1.349       .  A
N449        N456   1.318       .  A
N449        N479   1.324       .  A
N449       Co482   2.076   1_655  S
N450        N468   1.319       .  A
N450        N486   1.323       .  A
N451        C480   1.343       .  A
N451        N461   1.319       .  A
H452        C477   1.081       .  S
N453        N474   1.326       .  A
N454        N472   1.316       .  A
N454        N459   1.321       .  A
C455        C483   1.467       .  S
C455        C577   1.496       .  S
C455        N459   1.352       .  A
N456        C471   1.338       .  A
N456       Co478   2.080   1_655  S
C457        C460   1.467       .  S
C457        H491   1.081       .  S
C457        N485   1.346       .  A
C460        C619   1.486       .  S
C460        N481   1.346       .  A
N461        N467   1.321       .  A
N462        C488   1.335       .  A
N462        N464   1.319       .  A
N462       Co478   2.066       .  S
N463        C477   1.334       .  A
N464        N492   1.321       .  A
N464       Co482   2.061       .  S
H465        C488   1.081       .  S
H466        C483   1.080       .  S
N468       Co482   2.063   1_645  S
N469        N481   1.318       .  A
N469        N485   1.318       .  A
N469       Co478   2.067       .  S
C470        C484   1.460       .  S
C470        C664   1.490       .  S
C470        N474   1.353       .  A
C471        C490   1.462       .  S
C471        H475   1.080       .  S
N472        C483   1.341       .  A
N472       Co482   2.077   1_545  S
C476        C488   1.450       .  S
C476        C496   1.460       .  S
C476        N492   1.345       .  A
Co478      Cl489   2.431       .  S
N479        C490   1.349       .  A
C480        C650   1.471       .  S
Co482      Cl489   2.453       .  S
C490        C510   1.487       .  S
C493        C494   1.410       .  A
C493        C498   1.408       .  A
C494        C495   1.403       .  A
C494        C499   1.452       .  S
C495        C496   1.409       .  A
C495        C502   1.452       .  S
C496        C497   1.409       .  A
C497        C498   1.403       .  A
C497        C500   1.452       .  S
C498        C501   1.450       .  S
C499        N506   1.157       .  T
C500        N505   1.157       .  T
C501        N503   1.157       .  T
C502        N504   1.157       .  T
C507        C508   1.420       .  A
C507        C512   1.417       .  A
C508        C509   1.405       .  A
C508        C513   1.451       .  S
C509        C510   1.406       .  A
C509        C516   1.449       .  S
C510        C511   1.414       .  A
C511        C512   1.412       .  A
C511        C514   1.452       .  S
C512        C515   1.446       .  S
C513        N520   1.157       .  T
C514        N519   1.158       .  T
C515        N517   1.156       .  T
C516        N518   1.157       .  T
C521        C522   1.409       .  A
C521        C526   1.413       .  A
C522        C523   1.409       .  A
C522        C527   1.450       .  S
C523        C524   1.411       .  A
C523        C530   1.451       .  S
C524        C525   1.407       .  A
C525        C526   1.404       .  A
C525        C528   1.452       .  S
C526        C529   1.451       .  S
C527        N534   1.157       .  T
C528        N533   1.157       .  T
C529        N531   1.157       .  T
C530        N532   1.157       .  T
C535        C536   1.425       .  A
C535        C540   1.420       .  A
C536        C537   1.408       .  A
C536        C541   1.453       .  S
C537        C538   1.409       .  A
C537        C544   1.454       .  S
C538        C539   1.410       .  A
C539        C540   1.420       .  A
C539        C542   1.449       .  S
C540        C543   1.449       .  S
C541        N548   1.158       .  T
C542        N547   1.157       .  T
C543        N545   1.158       .  T
C544        N546   1.157       .  T
C549        C550   1.410       .  A
C549        C554   1.410       .  A
C550        C551   1.409       .  A
C550        C555   1.450       .  S
C551        C552   1.411       .  A
C551        C558   1.451       .  S
C552        C553   1.409       .  A
C553        C554   1.404       .  A
C553        C556   1.451       .  S
C554        C557   1.452       .  S
C555        N562   1.157       .  T
C556        N561   1.157       .  T
C557        N559   1.157       .  T
C558        N560   1.157       .  T
C563        C564   1.411       .  A
C563        C568   1.415       .  A
C564        C565   1.408       .  A
C564        C569   1.451       .  S
C565        C566   1.412       .  A
C565        C572   1.451       .  S
C566        C567   1.409       .  A
C567        C568   1.405       .  A
C567        C570   1.453       .  S
C568        C571   1.452       .  S
C569        N576   1.157       .  T
C570        N575   1.157       .  T
C571        N573   1.157       .  T
C572        N574   1.157       .  T
C577        C578   1.416       .  A
C577        C582   1.421       .  A
C578        C579   1.406       .  A
C578        C583   1.452       .  S
C579        C580   1.416       .  A
C579        C586   1.453       .  S
C580        C581   1.413       .  A
C581        C582   1.414       .  A
C581        C584   1.452       .  S
C582        C585   1.450       .  S
C583        N590   1.157       .  T
C584        N589   1.157       .  T
C585        N587   1.158       .  T
C586        N588   1.157       .  T
C591        C592   1.418       .  A
C591        C596   1.416       .  A
C592        C593   1.415       .  A
C592        C597   1.451       .  S
C593        C594   1.410       .  A
C593        C600   1.450       .  S
C594        C595   1.414       .  A
C595        C596   1.407       .  A
C595        C598   1.453       .  S
C596        C599   1.453       .  S
C597        N604   1.157       .  T
C598        N603   1.157       .  T
C599        N601   1.157       .  T
C600        N602   1.157       .  T
C605        C606   1.418       .  A
C605        C610   1.420       .  A
C606        C607   1.419       .  A
C606        C611   1.451       .  S
C607        C608   1.420       .  A
C607        C614   1.450       .  S
C608        C609   1.415       .  A
C609        C610   1.411       .  A
C609        C612   1.452       .  S
C610        C613   1.453       .  S
C611        N618   1.157       .  T
C612        N617   1.157       .  T
C613        N615   1.158       .  T
C614        N616   1.158       .  T
C619        C620   1.409       .  A
C619        C624   1.416       .  A
C620        C621   1.416       .  A
C620        C625   1.451       .  S
C621        C622   1.418       .  A
C621        C628   1.449       .  S
C622        C623   1.415       .  A
C623        C624   1.406       .  A
C623        C626   1.453       .  S
C624        C627   1.454       .  S
C625        N632   1.157       .  T
C626        N631   1.157       .  T
C627        N629   1.158       .  T
C628        N630   1.157       .  T
C633        C634   1.409       .  A
C633        C638   1.411       .  A
C634        C635   1.404       .  A
C634        C639   1.452       .  S
C635        C636   1.412       .  A
C635        C642   1.452       .  S
C636        C637   1.411       .  A
C637        C638   1.409       .  A
C637        C640   1.450       .  S
C638        C641   1.451       .  S
C639        N646   1.157       .  T
C640        N645   1.157       .  T
C641        N643   1.157       .  T
C642        N644   1.157       .  T
C647        C648   1.411       .  A
C647        C652   1.413       .  A
C648        C649   1.406       .  A
C648        C653   1.451       .  S
C649        C650   1.410       .  A
C649        C656   1.452       .  S
C650        C651   1.409       .  A
C651        C652   1.410       .  A
C651        C654   1.451       .  S
C652        C655   1.451       .  S
C653        N660   1.157       .  T
C654        N659   1.157       .  T
C655        N657   1.157       .  T
C656        N658   1.157   1_545  T
C661        C662   1.411       .  A
C661        C666   1.410       .  A
C662        C663   1.403       .  A
C662        C667   1.453       .  S
C663        C664   1.418       .  A
C663        C670   1.453       .  S
C664        C665   1.415       .  A
C665        C666   1.416       .  A
C665        C668   1.450       .  S
C666        C669   1.449       .  S
C667        N674   1.158       .  T
C668        N673   1.157       .  T
C669        N671   1.157       .  T
C670        N672   1.158   1_655  T
C675        C676   1.413       .  A
C675        C680   1.416       .  A
C676        C677   1.414       .  A
C676        C681   1.448       .  S
C677        C678   1.418       .  A
C677        C684   1.451       .  S
C678        C679   1.416       .  A
C679        C680   1.408       .  A
C679        C682   1.452       .  S
C680        C683   1.453       .  S
C681        N688   1.156       .  T
C682        N687   1.157       .  T
C683        N685   1.157       .  T
C684        N686   1.158       .  T
C689        C690   1.409       .  A
C689        C694   1.412       .  A
C690        C691   1.406       .  A
C690        C695   1.451       .  S
C691        C692   1.410       .  A
C691        C698   1.451       .  S
C692        C693   1.409       .  A
C693        C694   1.408       .  A
C693        C696   1.450       .  S
C694        C697   1.451       .  S
C695        N702   1.157       .  T
C696        N701   1.157       .  T
C697        N699   1.157       .  T
C698        N700   1.157       .  T
C703        C704   1.420       .  A
C703        C708   1.417       .  A
C704        C705   1.401       .  A
C704        C709   1.452       .  S
C705        C706   1.406       .  A
C705        C712   1.449       .  S
C706        C707   1.414       .  A
C707        C708   1.410       .  A
C707        C710   1.451       .  S
C708        C711   1.451       .  S
C709        N716   1.157       .  T
C710        N715   1.158       .  T
C711        N713   1.157       .  T
C712        N714   1.157       .  T
C717        C718   1.410       .  A
C717        C722   1.408       .  A
C718        C719   1.412       .  A
C718        C723   1.453   1_545  S
C719        C720   1.425       .  A
C719        C726   1.450       .  S
C720        C721   1.425       .  A
C721        C722   1.409       .  A
C721        C724   1.451       .  S
C722        C725   1.453       .  S
C723        N730   1.157       .  T
C724        N729   1.157       .  T
C725        N727   1.157       .  T
C726        N728   1.157   1_545  T
C731        C732   1.413       .  A
C731        C736   1.411       .  A
C732        C733   1.411       .  A
C732        C737   1.451       .  S
C733        C734   1.418       .  A
C733        C740   1.451       .  S
C734        C735   1.417       .  A
C735        C736   1.405       .  A
C735        C738   1.452       .  S
C736        C739   1.451       .  S
C737        N744   1.157   1_565  T
C738        N743   1.157       .  T
C739        N741   1.156       .  T
C740        N742   1.157       .  T
C745        C746   1.411       .  A
C745        C750   1.413       .  A
C746        C747   1.413       .  A
C746        C751   1.451       .  S
C747        C748   1.422       .  A
C747        C754   1.451       .  S
C748        C749   1.416       .  A
C749        C750   1.408       .  A
C749        C752   1.452       .  S
C750        C753   1.450       .  S
C751        N758   1.157       .  T
C752        N757   1.157       .  T
C753        N755   1.156       .  T
C754        N756   1.157       .  T
C759        C760   1.412       .  A
C759        C764   1.410       .  A
C760        C761   1.416       .  A
C760        C765   1.451       .  S
C761        C762   1.422       .  A
C761        C768   1.449       .  S
C762        C763   1.418       .  A
C763        C764   1.409       .  A
C763        C766   1.446       .  S
C764        C767   1.453       .  S
C765        N772   1.157       .  T
C766        N771   1.155       .  T
C767        N769   1.157   1_655  T
C768        N770   1.157       .  T
C773        C774   1.417       .  A
C773        C778   1.416       .  A
C774        C775   1.417       .  A
C774        C779   1.451       .  S
C775        C776   1.420       .  A
C775        C782   1.451       .  S
C776        C777   1.420       .  A
C777        C778   1.413       .  A
C777        C780   1.452       .  S
C778        C781   1.452       .  S
C779        N786   1.157       .  T
C780        N785   1.157       .  T
C781        N783   1.157       .  T
C782        N784   1.157       .  T
C787        C788   1.419       .  A
C787        C792   1.425       .  A
C788        C789   1.410       .  A
C788        C793   1.448       .  S
C789        C790   1.409       .  A
C789        C796   1.452       .  S
C790        C791   1.406       .  A
C791        C792   1.412       .  A
C791        C794   1.453   1_655  S
C792        C795   1.448       .  S
C793        N800   1.156       .  T
C794        N799   1.157       .  T
C795        N797   1.157       .  T
C796        N798   1.157       .  T
C801        C802   1.419       .  A
C801        C806   1.422       .  A
C802        C803   1.409       .  A
C802        C807   1.452       .  S
C803        C804   1.414       .  A
C803        C810   1.453   1_545  S
C804        C805   1.412       .  A
C805        C806   1.412       .  A
C805        C808   1.452       .  S
C806        C809   1.450       .  S
C807        N814   1.157   1_545  T
C808        N813   1.157       .  T
C809        N811   1.157       .  T
C810        N812   1.157       .  T
C815        C816   1.412       .  A
C815        C820   1.408       .  A
C816        C817   1.409       .  A
C816        C821   1.452       .  S
C817        C818   1.418       .  A
C817        C824   1.452       .  S
C818        C819   1.421       .  A
C819        C820   1.405       .  A
C819        C822   1.451       .  S
C820        C823   1.452       .  S
C821        N828   1.157       .  T
C822        N827   1.157       .  T
C823        N825   1.157       .  T
C824        N826   1.158       .  T
C829        C830   1.421       .  A
C829        C834   1.424       .  A
C830        C831   1.413       .  A
C830        C835   1.451       .  S
C831        C832   1.412       .  A
C831        C838   1.452       .  S
C832        C833   1.411       .  A
C833        C834   1.415       .  A
C833        C836   1.452       .  S
C834        C837   1.449       .  S
C835        N842   1.157       .  T
C836        N841   1.157       .  T
C837        N839   1.157       .  T
C838        N840   1.157   1_544  T
C843        C844   1.408       .  A
C843        C848   1.412       .  A
C844        C845   1.406       .  A
C844        C849   1.453       .  S
C845        C846   1.422       .  A
C845        C852   1.453       .  S
C846        C847   1.418       .  A
C847        C848   1.420       .  A
C847        C850   1.449       .  S
C848        C851   1.449       .  S
C849        N856   1.157       .  T
C850        N855   1.158       .  T
C851        N853   1.157       .  T
C852        N854   1.158       .  T
C857        C858   1.420       .  A
C857        C862   1.418       .  A
C858        C859   1.408       .  A
C858        C863   1.452       .  S
C859        C860   1.410       .  A
C859        C866   1.451       .  S
C860        C861   1.411       .  A
C861        C862   1.410       .  A
C861        C864   1.450       .  S
C862        C865   1.450       .  S
C863        N870   1.157       .  T
C864        N869   1.157       .  T
C865        N867   1.157       .  T
C866        N868   1.157   1_455  T
C871        C872   1.412       .  A
C871        C876   1.410       .  A
C872        C873   1.409       .  A
C872        C877   1.450       .  S
C873        C874   1.409       .  A
C873        C880   1.452       .  S
C874        C875   1.411       .  A
C875        C876   1.405       .  A
C875        C878   1.452       .  S
C876        C879   1.451       .  S
C877        N884   1.157       .  T
C878        N883   1.157       .  T
C879        N881   1.157       .  T
C880        N882   1.157       .  T
C885        C886   1.422       .  A
C885        C890   1.424       .  A
C886        C887   1.411       .  A
C886        C891   1.451       .  S
C887        C888   1.411       .  A
C887        C894   1.452       .  S
C888        C889   1.411       .  A
C889        C890   1.413       .  A
C889        C892   1.453       .  S
C890        C893   1.449       .  S
C891        N898   1.157       .  T
C892        N897   1.157       .  T
C893        N895   1.157       .  T
C894        N896   1.157   1_545  T
C899        C900   1.414       .  A
C899        C904   1.416       .  A
C900        C901   1.416       .  A
C900        C905   1.450       .  S
C901        C902   1.412       .  A
C901        C908   1.449       .  S
C902        C903   1.409       .  A
C903        C904   1.404       .  A
C903        C906   1.452       .  S
C904        C907   1.452       .  S
C905        N912   1.157       .  T
C906        N911   1.157       .  T
C907        N909   1.158       .  T
C908        N910   1.157       .  T
C913        C914   1.410       .  A
C913        C918   1.412       .  A
C914        C915   1.405       .  A
C914        C919   1.453       .  S
C915        C916   1.424       .  A
C915        C922   1.452       .  S
C916        C917   1.421       .  A
C917        C918   1.410       .  A
C917        C920   1.450       .  S
C918        C921   1.451       .  S
C919        N926   1.157       .  T
C920        N925   1.157       .  T
C921        N923   1.157       .  T
C922        N924   1.157       .  T
C927        C928   1.409       .  A
C927        C932   1.408       .  A
C928        C929   1.404       .  A
C928        C933   1.452       .  S
C929        C930   1.410       .  A
C929        C936   1.450       .  S
C930        C931   1.409       .  A
C931        C932   1.403       .  A
C931        C934   1.451       .  S
C932        C935   1.452       .  S
C933        N940   1.157       .  T
C934        N939   1.157       .  T
C935        N937   1.157       .  T
C936        N938   1.157       .  T
C941        C942   1.415       .  A
C941        C946   1.414       .  A
C942        C943   1.415       .  A
C942        C947   1.450       .  S
C943        C944   1.413       .  A
C943        C950   1.451       .  S
C944        C945   1.416       .  A
C945        C946   1.408       .  A
C945        C948   1.451       .  S
C946        C949   1.453       .  S
C947        N954   1.157       .  T
C948        N953   1.157   1_545  T
C949        N951   1.157       .  T
C950        N952   1.157       .  T
C955        C956   1.414       .  A
C955        C960   1.416       .  A
C956        C957   1.406       .  A
C956        C961   1.452       .  S
C957        C958   1.409       .  A
C957        C964   1.452       .  S
C958        C959   1.407       .  A
C959        C960   1.403       .  A
C959        C962   1.454       .  S
C960        C963   1.451       .  S
C961        N968   1.157       .  T
C962        N967   1.157       .  T
C963        N965   1.157       .  T
C964        N966   1.157       .  T
C969        C970   1.416       .  A
C969        C974   1.408       .  A
C970        C971   1.407       .  A
C970        C975   1.453       .  S
C971        C972   1.414       .  A
C971        C978   1.453       .  S
C972        C973   1.417       .  A
C973        C974   1.412       .  A
C973        C976   1.451       .  S
C974        C977   1.451       .  S
C975        N982   1.158   1_545  T
C976        N981   1.157       .  T
C977        N979   1.157       .  T
C978        N980   1.157       .  T
C983        C984   1.419       .  A
C983        C988   1.411       .  A
C984        C985   1.413       .  A
C984        C989   1.451       .  S
C985        C986   1.415       .  A
C985        C992   1.451       .  S
C986        C987   1.421       .  A
C987        C988   1.404       .  A
C987        C990   1.454       .  S
C988        C991   1.447       .  S
C989        N996   1.157       .  T
C990        N995   1.157       .  T
C991        N993   1.157       .  T
C992        N994   1.157       .  T
C997        C998   1.415       .  A
C997       C1002   1.417       .  A
C998        C999   1.411       .  A
C998       C1003   1.452       .  S
C999       C1000   1.416       .  A
C999       C1006   1.451       .  S
C1000      C1001   1.414       .  A
C1001      C1002   1.411       .  A
C1001      C1004   1.451   1_655  S
C1002      C1005   1.451       .  S
C1003      N1010   1.157       .  T
C1004      N1009   1.157       .  T
C1005      N1007   1.157   1_655  T
C1006      N1008   1.157   1_554  T
C1011      C1012   1.416       .  A
C1011      C1016   1.412       .  A
C1012      C1013   1.407       .  A
C1012      C1017   1.452       .  S
C1013      C1014   1.409       .  A
C1013      C1020   1.452       .  S
C1014      C1015   1.411       .  A
C1015      C1016   1.408       .  A
C1015      C1018   1.451       .  S
C1016      C1019   1.451       .  S
C1017      N1024   1.157       .  T
C1018      N1023   1.157       .  T
C1019      N1021   1.157       .  T
C1020      N1022   1.157       .  T
C1025      C1026   1.414       .  A
C1025      C1030   1.412       .  A
C1026      C1027   1.407       .  A
C1026      C1031   1.451       .  S
C1027      C1028   1.408       .  A
C1027      C1034   1.452       .  S
C1028      C1029   1.411       .  A
C1029      C1030   1.408       .  A
C1029      C1032   1.452       .  S
C1030      C1033   1.451       .  S
C1031      N1038   1.157       .  T
C1032      N1037   1.157       .  T
C1033      N1035   1.157       .  T
C1034      N1036   1.157       .  T
C1039      C1040   1.420       .  A
C1039      C1044   1.423       .  A
C1040      C1041   1.415       .  A
C1040      C1045   1.450       .  S
C1041      C1042   1.412       .  A
C1041      C1048   1.451       .  S
C1042      C1043   1.411       .  A
C1043      C1044   1.408       .  A
C1043      C1046   1.453       .  S
C1044      C1047   1.453       .  S
C1045      N1052   1.157       .  T
C1046      N1051   1.157       .  T
C1047      N1049   1.158       .  T
C1048      N1050   1.157       .  T
C1053      C1054   1.413       .  A
C1053      C1058   1.401       .  A
C1054      C1055   1.418       .  A
C1054      C1059   1.448       .  S
C1055      C1056   1.421       .  A
C1055      C1062   1.450       .  S
C1056      C1057   1.425       .  A
C1057      C1058   1.403       .  A
C1057      C1060   1.451       .  S
C1058      C1061   1.450       .  S
C1059      N1066   1.157       .  T
C1060      N1065   1.158       .  T
C1061      N1063   1.157       .  T
C1062      N1064   1.157       .  T
C1067      C1068   1.409       .  A
C1067      C1072   1.410       .  A
C1068      C1069   1.404       .  A
C1068      C1073   1.455       .  S
C1069      C1070   1.422       .  A
C1069      C1076   1.453       .  S
C1070      C1071   1.417       .  A
C1071      C1072   1.414       .  A
C1071      C1074   1.450       .  S
C1072      C1075   1.450       .  S
C1073      N1080   1.157       .  T
C1074      N1079   1.158       .  T
C1075      N1077   1.157       .  T
C1076      N1078   1.158       .  T
C1081      C1082   1.409       .  A
C1081      C1086   1.411       .  A
C1082      C1083   1.413       .  A
C1082      C1087   1.451       .  S
C1083      C1084   1.422       .  A
C1083      C1090   1.449       .  S
C1084      C1085   1.420       .  A
C1085      C1086   1.411       .  A
C1085      C1088   1.452       .  S
C1086      C1089   1.450       .  S
C1087      N1094   1.157       .  T
C1088      N1093   1.157       .  T
C1089      N1091   1.157   1_554  T
C1090      N1092   1.157       .  T
C1095      C1096   1.416       .  A
C1095      C1100   1.413       .  A
C1096      C1097   1.412       .  A
C1096      C1101   1.451       .  S
C1097      C1098   1.409       .  A
C1097      C1104   1.450       .  S
C1098      C1099   1.418       .  A
C1099      C1100   1.407       .  A
C1099      C1102   1.453       .  S
C1100      C1103   1.453       .  S
C1101      N1108   1.157       .  T
C1102      N1107   1.158       .  T
C1103      N1105   1.157       .  T
C1104      N1106   1.157       .  T
C1109      C1110   1.410       .  A
C1109      C1114   1.407       .  A
C1110      C1111   1.416       .  A
C1110      C1115   1.450       .  S
C1111      C1112   1.417       .  A
C1111      C1118   1.449       .  S
C1112      C1113   1.427       .  A
C1113      C1114   1.407       .  A
C1113      C1116   1.454       .  S
C1114      C1117   1.454       .  S
C1115      N1122   1.157       .  T
C1116      N1121   1.158       .  T
C1117      N1119   1.157       .  T
C1118      N1120   1.157       .  T
C1123      C1124   1.422       .  A
C1123      C1128   1.421       .  A
C1124      C1125   1.408       .  A
C1124      C1129   1.452       .  S
C1125      C1126   1.411       .  A
C1125      C1132   1.452   1_655  S
C1126      C1127   1.410       .  A
C1127      C1128   1.406       .  A
C1127      C1130   1.452       .  S
C1128      C1131   1.452       .  S
C1129      N1136   1.158       .  T
C1130      N1135   1.157       .  T
C1131      N1133   1.158       .  T
C1132      N1134   1.157       .  T
C1137      C1138   1.406       .  A
C1137      C1142   1.410       .  A
C1138      C1139   1.402       .  A
C1138      C1143   1.452       .  S
C1139      C1140   1.415       .  A
C1139      C1146   1.453       .  S
C1140      C1141   1.411       .  A
C1141      C1142   1.406       .  A
C1141      C1144   1.451       .  S
C1142      C1145   1.452       .  S
C1143      N1150   1.157       .  T
C1144      N1149   1.157       .  T
C1145      N1147   1.157       .  T
C1146      N1148   1.157       .  T
C1151      C1152   1.409       .  A
C1151      C1156   1.415       .  A
C1152      C1153   1.407       .  A
C1152      C1157   1.450       .  S
C1153      C1154   1.411       .  A
C1153      C1160   1.451       .  S
C1154      C1155   1.407       .  A
C1155      C1156   1.402       .  A
C1155      C1158   1.452       .  S
C1156      C1159   1.453       .  S
C1157      N1164   1.157       .  T
C1158      N1163   1.157       .  T
C1159      N1161   1.157       .  T
C1160      N1162   1.157       .  T
