geometry optimzed in LAMMPS
_audit_creation_date              2020-12-01 
_audit_creation_method            'lammps2cif' 
_symmetry_space_group_name_H-M    'P1' 
_symmetry_Int_Tables_number       1 
_symmetry_cell_setting            triclinic 
loop_ 
_symmetry_equiv_pos_as_xyz 
  x,y,z 
_cell_length_a                    69.05075012 
_cell_length_b                    58.679231981916985 
_cell_length_c                    39.72364953135501 
_cell_angle_alpha                 89.86126628349713 
_cell_angle_beta                  89.96187924582759 
_cell_angle_gamma                 90.3360137905903 
loop_ 
_atom_site_label 
_atom_site_type_symbol 
_atom_site_fract_x 
_atom_site_fract_y 
_atom_site_fract_z 
_atom_site_charge 
N1          N  0.55958536  0.07164324  0.44081924    -0.26700
N2          N  0.57020109  0.05311815  0.43748739    -0.34500
C3          C  0.56005348  0.03494480  0.44842082     0.01700
C4          C  0.54210570  0.04221715  0.45915769     0.07700
C5          C  0.54227153  0.06566355  0.45399126    -0.05400
H6          H  0.56537203  0.01763484  0.44850935     0.08400
H7          H  0.53076642  0.07753275  0.45940127     0.09600
Cu8        Cu  0.59810276  0.05323909  0.41862055     0.44200
Cu9        Cu  0.56977556  0.10396081  0.42705715     0.42000
Cu10       Cu  0.62023439  0.10669319  0.39604137     0.43900
N11         N  0.62627428  0.05615684  0.40148202    -0.34100
N12         N  0.63479237  0.07567696  0.39357328    -0.28300
C13         C  0.65321207  0.07145283  0.38416708    -0.04400
C14         C  0.65625287  0.04810319  0.38626035     0.07800
C15         C  0.63886693  0.03906778  0.39723400     0.01600
H16         H  0.66349915  0.08438222  0.37631159     0.09300
H17         H  0.63562812  0.02129521  0.40207964     0.08300
N18         N  0.60188382  0.13470346  0.40004521    -0.35500
N19         N  0.58379749  0.13378368  0.41110921    -0.27700
C20         C  0.57629300  0.15492547  0.41020574    -0.02900
C21         C  0.59023466  0.16989318  0.39805534     0.05700
C22         C  0.60628488  0.15640895  0.39186424     0.03800
H23         H  0.56170932  0.15912537  0.41788904     0.08900
H24         H  0.62019899  0.16182314  0.38213349     0.07700
N25         N  0.39121652  0.94508415  0.06585591    -0.26700
N26         N  0.38133229  0.96433192  0.06554230    -0.34500
C27         C  0.39284877  0.98135380  0.05486221     0.01700
C28         C  0.41091935  0.97267086  0.04796752     0.07700
C29         C  0.40945223  0.94951949  0.05518937    -0.05400
H30         H  0.38831953  0.99888528  0.05212926     0.08400
H31         H  0.42069016  0.93685980  0.05283343     0.09600
Cu32       Cu  0.35251471  0.96765653  0.07873784     0.44200
Cu33       Cu  0.37877505  0.91399047  0.08077387     0.42000
Cu34       Cu  0.32705204  0.91826543  0.10404321     0.43900
N35         N  0.32350624  0.96828496  0.09161442    -0.34100
N36         N  0.31392724  0.94986526  0.10124148    -0.28300
C37         C  0.29540493  0.95545629  0.10759510    -0.04400
C38         C  0.29328275  0.97861698  0.10156029     0.07800
C39         C  0.31139298  0.98612958  0.09144621     0.01600
H40         H  0.28437225  0.94345279  0.11557540     0.09300
H41         H  0.31544372  0.00330773  0.08426505     0.08300
N42         N  0.34288496  0.88836666  0.10452335    -0.35500
N43         N  0.36143073  0.88652010  0.09651353    -0.27700
C44         C  0.36667094  0.86452556  0.10006006    -0.02900
C45         C  0.35062090  0.85207207  0.11072162     0.05700
C46         C  0.33589661  0.86775946  0.11316130     0.03800
H47         H  0.38105352  0.85815602  0.09508353     0.08900
H48         H  0.32110319  0.86445307  0.12083766     0.07700
N49         N  0.40170366  0.58314446  0.21459049    -0.26700
N50         N  0.39205758  0.56397642  0.22035282    -0.34500
C51         C  0.40497442  0.54753919  0.22822658     0.01700
C52         C  0.42350618  0.55703040  0.22724096     0.07700
C53         C  0.42073383  0.57951092  0.21845947    -0.05400
H54         H  0.40114882  0.53009791  0.23423351     0.08400
H55         H  0.43181843  0.59245286  0.21530146     0.09600
Cu56       Cu  0.36162891  0.56208998  0.21694310     0.44200
Cu57       Cu  0.38943799  0.61404405  0.20201823     0.42000
Cu58       Cu  0.33871245  0.61676273  0.19265469     0.43900
N59         N  0.33157405  0.56685676  0.21103770    -0.34100
N60         N  0.32369587  0.58655143  0.20234224    -0.28300
C61         C  0.30436340  0.58397463  0.20053022    -0.04400
C62         C  0.29959453  0.56168800  0.20834603     0.07800
C63         C  0.31724651  0.55125650  0.21492597     0.01600
H64         H  0.29443235  0.59742221  0.19375644     0.09300
H65         H  0.31957142  0.53364389  0.22182206     0.08300
N66         N  0.35656744  0.64499872  0.18495687    -0.35500
N67         N  0.37551969  0.64380846  0.18878962    -0.27700
C68         C  0.38345582  0.66432763  0.18237340    -0.02900
C69         C  0.36882286  0.67926827  0.17398932     0.05700
C70         C  0.35188225  0.66641955  0.17589560     0.03800
H71         H  0.39880415  0.66807204  0.18353441     0.08900
H72         H  0.33726910  0.67208038  0.17106385     0.07700
N73         N  0.56854962  0.43523729  0.30952467    -0.26700
N74         N  0.57662025  0.45519896  0.30264942    -0.34500
C75         C  0.56258054  0.47007861  0.29434042     0.01700
C76         C  0.54481935  0.45886594  0.29612581     0.07700
C77         C  0.54924150  0.43686836  0.30588534    -0.05400
H78         H  0.56518540  0.48768548  0.28753355     0.08400
H79         H  0.53913107  0.42295635  0.30981086     0.09600
Cu80       Cu  0.60649937  0.46076518  0.30509236     0.44200
Cu81       Cu  0.58413735  0.40645004  0.32290120     0.42000
Cu82       Cu  0.63634487  0.41187070  0.32900099     0.43900
N83         N  0.63662395  0.46197774  0.30989162    -0.34100
N84         N  0.64747300  0.44440487  0.31864219    -0.28300
C85         C  0.66619822  0.45110466  0.31916717    -0.04400
C86         C  0.66719694  0.47399483  0.31026466     0.07800
C87         C  0.64816353  0.48022536  0.30465663     0.01600
H88         H  0.67813385  0.44003759  0.32546277     0.09300
H89         H  0.64306087  0.49688382  0.29716960     0.08300
N90         N  0.62128464  0.38126204  0.33698726    -0.35500
N91         N  0.60222678  0.37946289  0.33476647    -0.27700
C92         C  0.59690762  0.35773400  0.34085371    -0.02900
C93         C  0.61341327  0.34511263  0.34727493     0.05700
C94         C  0.62857670  0.36061393  0.34455059     0.03800
H95         H  0.58209521  0.35166978  0.34028165     0.08900
H96         H  0.64383374  0.35708308  0.34766058     0.07700
N97         N  0.07348282  0.42870888  0.20648095    -0.26700
N98         N  0.08270813  0.44797114  0.21349100    -0.34500
C99         C  0.06944307  0.46399441  0.22117397     0.01700
C100        C  0.05107732  0.45425456  0.21882190     0.07700
C101        C  0.05431323  0.43195414  0.20949206    -0.05400
H102        H  0.07295036  0.48140650  0.22776082     0.08400
H103        H  0.04344427  0.41894659  0.20506326     0.09600
Cu104      Cu  0.11303240  0.45146024  0.21157150     0.44200
Cu105      Cu  0.08652772  0.39830352  0.19271181     0.42000
Cu106      Cu  0.13786288  0.39912743  0.18763497     0.43900
N107        N  0.14323971  0.44904882  0.20581877    -0.34100
N108        N  0.15192658  0.42991469  0.19700559    -0.28300
C109        C  0.17112566  0.43362304  0.19508645    -0.04400
C110        C  0.17494653  0.45611513  0.20302573     0.07800
C111        C  0.15687844  0.46546395  0.20975060     0.01600
H112        H  0.18162103  0.42077781  0.18840339     0.09300
H113        H  0.15382914  0.48283857  0.21695380     0.08300
N114        N  0.12149235  0.36994364  0.17845856    -0.35500
N115        N  0.10238601  0.36961668  0.18000144    -0.27700
C116        C  0.09596424  0.34843458  0.17288718    -0.02900
C117        C  0.11188658  0.33474904  0.16660781     0.05700
C118        C  0.12777971  0.34898686  0.17044971     0.03800
H119        H  0.08087313  0.34339950  0.17282331     0.08900
H120        H  0.14285529  0.34439694  0.16777306     0.07700
N121        N  0.90751804  0.58095030  0.29257501    -0.26700
N122        N  0.89894648  0.56111036  0.28710921    -0.34500
C123        C  0.91251221  0.54572097  0.27845445     0.01700
C124        C  0.93049507  0.55650102  0.27853890     0.07700
C125        C  0.92668800  0.57875860  0.28767689    -0.05400
H126        H  0.90946459  0.52805164  0.27273706     0.08400
H127        H  0.93714105  0.59242583  0.29054736     0.09600
Cu128      Cu  0.86905818  0.55674046  0.29219129     0.44200
Cu129      Cu  0.89267174  0.61015492  0.30641561     0.42000
Cu130      Cu  0.84069147  0.60707541  0.31799038     0.43900
N131        N  0.83904109  0.55692963  0.29876031    -0.34100
N132        N  0.82875969  0.57486700  0.30794500    -0.28300
C133        C  0.80991464  0.56872396  0.30965557    -0.04400
C134        C  0.80826332  0.54584540  0.30114322     0.07800
C135        C  0.82701869  0.53903556  0.29446663     0.01600
H136        H  0.79835575  0.58010163  0.31676646     0.09300
H137        H  0.83162430  0.52217491  0.28708774     0.08300
N138        N  0.85693549  0.63692041  0.32546373    -0.35500
N139        N  0.87589556  0.63774851  0.32078698    -0.27700
C140        C  0.88232502  0.65896119  0.32717116    -0.02900
C141        C  0.86679965  0.67229691  0.33646402     0.05700
C142        C  0.85084075  0.65775107  0.33511519     0.03800
H143        H  0.89731462  0.66429969  0.32530324     0.08900
H144        H  0.83593830  0.66192691  0.34061174     0.07700
N145        N  0.05375214  0.06607615  0.05774651    -0.26700
N146        N  0.06479246  0.04775388  0.05749574    -0.34500
C147        C  0.05422510  0.02967295  0.04775482     0.01700
C148        C  0.03556330  0.03674150  0.04137755     0.07700
C149        C  0.03571370  0.06002256  0.04795385    -0.05400
H150        H  0.05979240  0.01255596  0.04528613     0.08400
H151        H  0.02371392  0.07169303  0.04577196     0.09600
Cu152      Cu  0.09377202  0.04765192  0.07029287     0.44200
Cu153      Cu  0.06454952  0.09804968  0.07193680     0.42000
Cu154      Cu  0.11602759  0.09936147  0.09840597     0.43900
N155        N  0.12231063  0.04958530  0.08554004    -0.34100
N156        N  0.13070987  0.06851354  0.09621663    -0.28300
C157        C  0.14919030  0.06389171  0.10461805    -0.04400
C158        C  0.15244788  0.04089045  0.09885360     0.07800
C159        C  0.13510192  0.03246173  0.08677092     0.01600
H160        H  0.15939943  0.07637208  0.11405422     0.09300
H161        H  0.13198317  0.01508723  0.07938331     0.08300
N162        N  0.09777586  0.12750802  0.09809591    -0.35500
N163        N  0.07939489  0.12713315  0.08857589    -0.27700
C164        C  0.07209955  0.14826407  0.09176191    -0.02900
C165        C  0.08647078  0.16261987  0.10384475     0.05700
C166        C  0.10257506  0.14882759  0.10753676     0.03800
H167        H  0.05734246  0.15285970  0.08578524     0.08900
H168        H  0.11678453  0.15376853  0.11641963     0.07700
N169        N  0.88877441  0.94083295  0.41751458    -0.26700
N170        N  0.88019716  0.96058012  0.41197850    -0.34500
C171        C  0.89151407  0.97755663  0.42332872     0.01700
C172        C  0.90812589  0.96831817  0.43674373     0.07700
C173        C  0.90598791  0.94488792  0.43263193    -0.05400
H174        H  0.88771084  0.99541519  0.42248491     0.08400
H175        H  0.91592859  0.93177091  0.44062614     0.09600
Cu176      Cu  0.85288371  0.96432583  0.39165126     0.44200
Cu177      Cu  0.87544597  0.90967315  0.40535843     0.42000
Cu178      Cu  0.82444868  0.91491787  0.37659356     0.43900
N179        N  0.82423828  0.96595812  0.37707173    -0.34100
N180        N  0.81328629  0.94774507  0.37219150    -0.28300
C181        C  0.79501831  0.95452937  0.36576834    -0.04400
C182        C  0.79461260  0.97821369  0.36667381     0.07800
C183        C  0.81340264  0.98475740  0.37378943     0.01600
H184        H  0.78294449  0.94305309  0.36165130     0.09300
H185        H  0.81867360  0.00195616  0.37764578     0.08300
N186        N  0.83932347  0.88424305  0.38182780    -0.35500
N187        N  0.85752124  0.88212024  0.39189558    -0.27700
C188        C  0.86217332  0.85979252  0.39172460    -0.02900
C189        C  0.84614926  0.84733138  0.38103555     0.05700
C190        C  0.83203881  0.86344686  0.37504860     0.03800
H191        H  0.87622116  0.85322886  0.39866345     0.08900
H192        H  0.81746957  0.86027686  0.36612220     0.07700
C193        C  0.95579887  0.98709347  0.48055105     0.19300
C194        C  0.97502266  0.97954899  0.47926585    -0.18800
C195        C  0.99008947  0.99281456  0.49260892    -0.11100
C196        C  0.98621854  0.01388178  0.00821437     0.21600
C197        C  0.96693494  0.02123592  0.00994856    -0.20400
C198        C  0.95188246  0.00799797  0.99652698    -0.11200
C199        C  0.00184390  0.02903473  0.02171601    -0.15400
C200        C  0.01974302  0.02167924  0.02934500    -0.29300
C201        C  0.94023341  0.97283171  0.46502849    -0.03500
C202        C  0.92373880  0.98178413  0.45294065    -0.40100
H203        H  0.97846397  0.96355472  0.46714838     0.12700
H204        H  0.00471366  0.98666021  0.48975787     0.12300
H205        H  0.96347846  0.03731233  0.02181443     0.11800
H206        H  0.93721519  0.01414026  0.99901394     0.12000
H207        H  0.99837026  0.04684171  0.02581548     0.14800
H208        H  0.02326712  0.00379466  0.02678723     0.13500
H209        H  0.94285065  0.95471893  0.46200251     0.11200
H210        H  0.92156658  0.00007555  0.95397580     0.13200
C211        C  0.85426186  0.73428781  0.36315030     0.19300
C212        C  0.83749062  0.74765786  0.36151187    -0.18800
C213        C  0.83824152  0.77114193  0.36787765    -0.11100
C214        C  0.85590547  0.78194135  0.37620982     0.21600
C215        C  0.87253614  0.76837050  0.37901766    -0.20400
C216        C  0.87177202  0.74489777  0.37266972    -0.11200
C217        C  0.85778229  0.80706578  0.38235398    -0.15400
C218        C  0.84379412  0.82240627  0.37578367    -0.29300
C219        C  0.85283163  0.70943081  0.35511430    -0.03500
C220        C  0.86809379  0.69680098  0.34545116    -0.40100
H221        H  0.82373275  0.73993943  0.35484069     0.12700
H222        H  0.82486865  0.78051828  0.36629954     0.12300
H223        H  0.88628673  0.77599786  0.38595226     0.11800
H224        H  0.88493116  0.73520560  0.37558100     0.12000
H225        H  0.87156017  0.81324087  0.39196172     0.14800
H226        H  0.83001283  0.81692393  0.36556311     0.13500
H227        H  0.83856976  0.70154523  0.35579994     0.11200
H228        H  0.88229176  0.70463987  0.34321066     0.13200
C229        C  0.09749808  0.27245525  0.14495206     0.19300
C230        C  0.08245754  0.26234494  0.12635218    -0.18800
C231        C  0.08264199  0.23898635  0.11901324    -0.11100
C232        C  0.09781854  0.22506834  0.13064233     0.21600
C233        C  0.11273931  0.23520827  0.14952691    -0.20400
C234        C  0.11257849  0.25853386  0.15674431    -0.11200
C235        C  0.09907971  0.20016445  0.12320818    -0.15400
C236        C  0.08445152  0.18732939  0.11090176    -0.29300
C237        C  0.09672727  0.29733691  0.15243016    -0.03500
C238        C  0.11260821  0.31009078  0.15873644    -0.40100
H239        H  0.07061933  0.27263392  0.11707367     0.12700
H240        H  0.07100152  0.23215766  0.10386784     0.12300
H241        H  0.12458281  0.22498714  0.15895570     0.11800
H242        H  0.12413734  0.26545184  0.17205138     0.12000
H243        H  0.11276623  0.19196722  0.12875064     0.14800
H244        H  0.07040533  0.19478183  0.10609654     0.13500
H245        H  0.08266461  0.30550502  0.15161958     0.11200
H246        H  0.12685569  0.30244672  0.15749642     0.13200
C247        C  0.97266516  0.51622299  0.25320033     0.19300
C248        C  0.97410268  0.49658902  0.23320738    -0.18800
C249        C  0.99212885  0.48671736  0.22646570    -0.11100
C250        C  0.00926605  0.49610891  0.24000363     0.21600
C251        C  0.00784017  0.51584926  0.25974370    -0.20400
C252        C  0.98981961  0.52571568  0.26649197    -0.11200
C253        C  0.02884405  0.48612095  0.23388290    -0.15400
C254        C  0.03167996  0.46437107  0.22434435    -0.29300
C255        C  0.95304363  0.52575649  0.26037711    -0.03500
C256        C  0.94999167  0.54719447  0.27122701    -0.40100
H257        H  0.96119791  0.48889551  0.22254910     0.12700
H258        H  0.99248355  0.47194157  0.21029450     0.12300
H259        H  0.02073686  0.52350042  0.27049547     0.11800
H260        H  0.98948073  0.54045592  0.28272864     0.12000
H261        H  0.04138858  0.49689065  0.23860636     0.14800
H262        H  0.01938348  0.45303820  0.22100215     0.13500
H263        H  0.94061057  0.51478770  0.25575528     0.11200
H264        H  0.96210551  0.55882323  0.27435914     0.13200
C265        C  0.75496702  0.52358659  0.30587652     0.19300
C266        C  0.73668168  0.53399170  0.30611434    -0.18800
C267        C  0.71961814  0.52093826  0.30754674    -0.11100
C268        C  0.72038082  0.49694858  0.30877761     0.21600
C269        C  0.73866852  0.48655606  0.30848524    -0.20400
C270        C  0.75572073  0.49960219  0.30708677    -0.11200
C271        C  0.70273404  0.48207848  0.31168324    -0.15400
C272        C  0.68438654  0.48923082  0.30697670    -0.29300
C273        C  0.77270524  0.53842104  0.30598950    -0.03500
C274        C  0.79080545  0.53093850  0.29981242    -0.40100
H275        H  0.73557238  0.55239757  0.30555512     0.12700
H276        H  0.70600265  0.52987929  0.30843643     0.12300
H277        H  0.73980478  0.46816649  0.30972310     0.11800
H278        H  0.76935451  0.49068859  0.30782971     0.12000
H279        H  0.70507484  0.46423301  0.31759577     0.14800
H280        H  0.68156110  0.50674361  0.29996162     0.13500
H281        H  0.77066937  0.55640140  0.31121716     0.11200
H282        H  0.79322448  0.51328056  0.29323567     0.13200
C283        C  0.21798296  0.49903553  0.21242184     0.19300
C284        C  0.21998835  0.52284101  0.21041851    -0.18800
C285        C  0.23831462  0.53329361  0.21143496    -0.11100
C286        C  0.25526362  0.52012689  0.21457315     0.21600
C287        C  0.25318630  0.49635276  0.21730756    -0.20400
C288        C  0.23487556  0.48592269  0.21631427    -0.11200
C289        C  0.27529638  0.53020119  0.21551118    -0.15400
C290        C  0.27958568  0.55215106  0.20837184    -0.29300
C291        C  0.19809132  0.48867548  0.21139609    -0.03500
C292        C  0.19458624  0.46661657  0.20394144    -0.40100
H293        H  0.20728059  0.53345596  0.20793409     0.12700
H294        H  0.23891809  0.55165770  0.21006931     0.12300
H295        H  0.26584489  0.48570795  0.22022880     0.11800
H296        H  0.23412510  0.46762297  0.21919099     0.12000
H297        H  0.28712367  0.51878830  0.22156648     0.14800
H298        H  0.26821047  0.56387520  0.20145000     0.13500
H299        H  0.18588094  0.49980754  0.21611814     0.11200
H300        H  0.20651649  0.45548972  0.19761898     0.13200
C301        C  0.50190159  0.49740548  0.26890401     0.19300
C302        C  0.50036805  0.51623356  0.24722466    -0.18800
C303        C  0.48227552  0.52530231  0.23892433    -0.11100
C304        C  0.46512610  0.51598459  0.25263676     0.21600
C305        C  0.46664115  0.49705420  0.27417248    -0.20400
C306        C  0.48476804  0.48792593  0.28240962    -0.11200
C307        C  0.44551095  0.52539153  0.24491807    -0.15400
C308        C  0.44273631  0.54687649  0.23401319    -0.29300
C309        C  0.52161784  0.48861094  0.27712118    -0.03500
C310        C  0.52506493  0.46751791  0.28911317    -0.40100
H311        H  0.51325848  0.52385596  0.23631663     0.12700
H312        H  0.48189856  0.53938438  0.22136088     0.12300
H313        H  0.45373949  0.48948443  0.28510682     0.11800
H314        H  0.48521599  0.47376236  0.29982990     0.12000
H315        H  0.43296285  0.51462574  0.24975849     0.14800
H316        H  0.45504947  0.55822421  0.23087406     0.13500
H317        H  0.53385400  0.49975392  0.27178953     0.11200
H318        H  0.51316397  0.45568211  0.29306781     0.13200
C319        C  0.20526404  0.02292457  0.11663026     0.19300
C320        C  0.22306017  0.03450030  0.11473017    -0.18800
C321        C  0.24050852  0.02250404  0.11465221    -0.11100
C322        C  0.24052833  0.99851776  0.11655371     0.21600
C323        C  0.22274063  0.98704551  0.12011643    -0.20400
C324        C  0.20530343  0.99904847  0.12020161    -0.11200
C325        C  0.25860216  0.98477838  0.11514556    -0.15400
C326        C  0.27574062  0.99286374  0.10398770    -0.29300
C327        C  0.18705213  0.03629699  0.11455404    -0.03500
C328        C  0.17026291  0.02738788  0.10337307    -0.40100
H329        H  0.22346235  0.05291051  0.11265249     0.12700
H330        H  0.25382275  0.03221371  0.11324114     0.12300
H331        H  0.22229915  0.96864582  0.12237386     0.11800
H332        H  0.19195331  0.98952444  0.12315604     0.12000
H333        H  0.25751198  0.96698614  0.12249592     0.14800
H334        H  0.27716771  0.01035807  0.09555011     0.13500
H335        H  0.18783548  0.05435472  0.12032918     0.11200
H336        H  0.16950569  0.00964282  0.09589373     0.13200
C337        C  0.35922326  0.74183476  0.14649447     0.19300
C338        C  0.34321808  0.75321937  0.13274459    -0.18800
C339        C  0.34446916  0.77622770  0.12360618    -0.11100
C340        C  0.36181404  0.78854111  0.12827022     0.21600
C341        C  0.37788809  0.77715635  0.14162488    -0.20400
C342        C  0.37662838  0.75416510  0.15090418    -0.11200
C343        C  0.36377280  0.81310025  0.11918743    -0.15400
C344        C  0.34866595  0.82746435  0.11831433    -0.29300
C345        C  0.35688910  0.71734565  0.15616156    -0.03500
C346        C  0.37160207  0.70355158  0.16483939    -0.40100
H347        H  0.32965617  0.74422828  0.12886684     0.12700
H348        H  0.33189661  0.78413411  0.11245409     0.12300
H349        H  0.39143076  0.78620603  0.14541459     0.11800
H350        H  0.38930268  0.74644890  0.16187748     0.12000
H351        H  0.37826201  0.81977192  0.11481126     0.14800
H352        H  0.33426718  0.82134526  0.12469058     0.13500
H353        H  0.34232356  0.71028818  0.15551916     0.11200
H354        H  0.38638410  0.70979659  0.16485864     0.13200
C355        C  0.74251889  0.00252455  0.36184287     0.19300
C356        C  0.72441191  0.99401940  0.35163852    -0.18800
C357        C  0.70776982  0.00740072  0.35409739    -0.11100
C358        C  0.70880671  0.02963812  0.36721825     0.21600
C359        C  0.72696376  0.03846604  0.37636809    -0.20400
C360        C  0.74361820  0.02505817  0.37404119    -0.11200
C361        C  0.69122933  0.04383074  0.37223944    -0.15400
C362        C  0.67376903  0.03460200  0.37897035    -0.29300
C363        C  0.75951559  0.98691035  0.36120070    -0.03500
C364        C  0.77801884  0.99398138  0.36403150    -0.40100
H365        H  0.72308922  0.97682358  0.34200634     0.12700
H366        H  0.69413547  0.00023868  0.34571063     0.12300
H367        H  0.72817809  0.05555856  0.38643037     0.11800
H368        H  0.75708718  0.03230314  0.38291069     0.12000
H369        H  0.69297837  0.06223144  0.37272164     0.14800
H370        H  0.67222858  0.01622750  0.38082045     0.13500
H371        H  0.75657679  0.96878893  0.35876921     0.11200
H372        H  0.78141481  0.01200307  0.36534112     0.13200
C373        C  0.60069053  0.28144023  0.36486835     0.19300
C374        C  0.58406235  0.26991026  0.37645572    -0.18800
C375        C  0.58423613  0.24632698  0.38225850    -0.11100
C376        C  0.60113860  0.23357775  0.37637585     0.21600
C377        C  0.61770815  0.24514292  0.36461023    -0.20400
C378        C  0.61752873  0.26868531  0.35883779    -0.11200
C379        C  0.60239167  0.20836203  0.38168633    -0.15400
C380        C  0.58793559  0.19485890  0.39322467    -0.29300
C381        C  0.59956335  0.30647482  0.35814026    -0.03500
C382        C  0.61509939  0.32037400  0.35464771    -0.40100
H383        H  0.57081986  0.27921356  0.38106456     0.12700
H384        H  0.57104499  0.23838495  0.39114528     0.12300
H385        H  0.63091421  0.23586700  0.35957577     0.11800
H386        H  0.63052777  0.27659443  0.34900179     0.12000
H387        H  0.61617455  0.20053003  0.37575183     0.14800
H388        H  0.57396788  0.20193549  0.39960737     0.13500
H389        H  0.58518802  0.31378436  0.35657743     0.11200
H390        H  0.62961316  0.31374631  0.35763174     0.13200
C391        C  0.49277490  0.01981851  0.99267601     0.19300
C392        C  0.47361665  0.02685149  0.98768955    -0.18800
C393        C  0.45807003  0.01338371  0.99864984    -0.11100
C394        C  0.46130097  0.99263958  0.01564187     0.21600
C395        C  0.48048483  0.98547164  0.52042122    -0.20400
C396        C  0.49608179  0.99893224  0.50930580    -0.11200
C397        C  0.44504842  0.97803608  0.02826649    -0.15400
C398        C  0.42741842  0.98644198  0.03534075    -0.29300
C399        C  0.50877168  0.03487827  0.98047102    -0.03500
C400        C  0.52660112  0.02727711  0.47282031    -0.40100
H401        H  0.47063876  0.04273707  0.97478850     0.12700
H402        H  0.44358569  0.01922384  0.99321160     0.12300
H403        H  0.48341966  0.96957407  0.53330917     0.11800
H404        H  0.51062071  0.99309734  0.51435733     0.12000
H405        H  0.44787584  0.96009542  0.53286341     0.14800
H406        H  0.42474093  0.00452741  0.03245932     0.13500
H407        H  0.50540149  0.05268497  0.97603313     0.11200
H408        H  0.52992451  0.00931158  0.47533844     0.13200
N409        N  0.55956300  0.07163645  0.94074079    -0.26700
N410        N  0.57018182  0.05311139  0.93743661    -0.34500
C411        C  0.56002995  0.03494073  0.94836946     0.01700
C412        C  0.54207739  0.04221552  0.95907945     0.07700
C413        C  0.54224405  0.06565980  0.95389491    -0.05400
H414        H  0.56535080  0.01763177  0.94848561     0.08400
H415        H  0.53073783  0.07753065  0.95928894     0.09600
Cu416      Cu  0.59809690  0.05323221  0.91862253     0.44200
Cu417      Cu  0.56975681  0.10395377  0.92698739     0.42000
Cu418      Cu  0.62022549  0.10669077  0.89603671     0.43900
N419        N  0.62627200  0.05615529  0.90149450    -0.34100
N420        N  0.63478623  0.07567522  0.89357147    -0.28300
C421        C  0.65320590  0.07145270  0.88416113    -0.04400
C422        C  0.65625161  0.04810448  0.88626944     0.07800
C423        C  0.63886817  0.03906854  0.89725586     0.01600
H424        H  0.66349031  0.08438248  0.87629701     0.09300
H425        H  0.63563288  0.02129661  0.90211225     0.08300
N426        N  0.60187729  0.13470395  0.90004192    -0.35500
N427        N  0.58378484  0.13378149  0.91107509    -0.27700
C428        C  0.57627999  0.15492317  0.91016643    -0.02900
C429        C  0.59022880  0.16989413  0.89804835     0.05700
C430        C  0.60628287  0.15641150  0.89187995     0.03800
H431        H  0.56169118  0.15912059  0.91782241     0.08900
H432        H  0.62020108  0.16182735  0.88216751     0.07700
N433        N  0.39121275  0.94507922  0.56580486    -0.26700
N434        N  0.38133094  0.96432899  0.56549209    -0.34500
C435        C  0.39285104  0.98134842  0.55481271     0.01700
C436        C  0.41092051  0.97266094  0.54791634     0.07700
C437        C  0.40944900  0.94951021  0.55513762    -0.05400
H438        H  0.38832545  0.99888107  0.55208216     0.08400
H439        H  0.42068528  0.93684788  0.55278448     0.09600
Cu440      Cu  0.35251125  0.96765824  0.57869079     0.44200
Cu441      Cu  0.37877229  0.91398647  0.58072835     0.42000
Cu442      Cu  0.32705544  0.91825967  0.60400645     0.43900
N443        N  0.32350153  0.96827953  0.59158001    -0.34100
N444        N  0.31392705  0.94985738  0.60121126    -0.28300
C445        C  0.29540480  0.95544362  0.60757631    -0.04400
C446        C  0.29327693  0.97860383  0.60154483     0.07800
C447        C  0.31138436  0.98612100  0.59142031     0.01600
H448        H  0.28437606  0.94343748  0.61556368     0.09300
H449        H  0.31543072  0.00330074  0.58423974     0.08300
N450        N  0.34288673  0.88836019  0.60448459    -0.35500
N451        N  0.36143226  0.88651403  0.59647374    -0.27700
C452        C  0.36667284  0.86451942  0.60001968    -0.02900
C453        C  0.35062286  0.85206559  0.61068115     0.05700
C454        C  0.33589841  0.86775279  0.61312153     0.03800
H455        H  0.38105498  0.85814952  0.59504057     0.08900
H456        H  0.32110489  0.86444605  0.62079677     0.07700
N457        N  0.40171889  0.58314704  0.71456412    -0.26700
N458        N  0.39207149  0.56398143  0.72033928    -0.34500
C459        C  0.40498724  0.54754310  0.72821107     0.01700
C460        C  0.42352009  0.55702997  0.72721041     0.07700
C461        C  0.42074949  0.57950993  0.71842249    -0.05400
H462        H  0.40116010  0.53010315  0.73422442     0.08400
H463        H  0.43183592  0.59244875  0.71525072     0.09600
Cu464      Cu  0.36164282  0.56209413  0.71694490     0.44200
Cu465      Cu  0.38945259  0.61404552  0.70197919     0.42000
Cu466      Cu  0.33872049  0.61676258  0.69267337     0.43900
N467        N  0.33158707  0.56685558  0.71105467    -0.34100
N468        N  0.32370615  0.58655031  0.70236780    -0.28300
C469        C  0.30437382  0.58397066  0.70055946    -0.04400
C470        C  0.29960821  0.56168184  0.70836881     0.07800
C471        C  0.31726178  0.55125229  0.71494134     0.01600
H472        H  0.29444098  0.59741696  0.69378992     0.09300
H473        H  0.31958946  0.53363841  0.72182870     0.08300
N474        N  0.35657427  0.64499407  0.68492726    -0.35500
N475        N  0.37552856  0.64380384  0.68873080    -0.27700
C476        C  0.38346257  0.66431887  0.68227569    -0.02900
C477        C  0.36882586  0.67925690  0.67390000     0.05700
C478        C  0.35188562  0.66641082  0.67584968     0.03800
H479        H  0.39881137  0.66806297  0.68340892     0.08900
H480        H  0.33727033  0.67207043  0.67103406     0.07700
N481        N  0.56854492  0.43525522  0.80963374    -0.26700
N482        N  0.57661742  0.45520928  0.80271728    -0.34500
C483        C  0.56257861  0.47008730  0.79439808     0.01700
C484        C  0.54481559  0.45888187  0.79622036     0.07700
C485        C  0.54923571  0.43689032  0.80601371    -0.05400
H486        H  0.56518544  0.48768757  0.78755678     0.08400
H487        H  0.53912365  0.42298368  0.80996636     0.09600
Cu488      Cu  0.60649750  0.46076824  0.80511643     0.44200
Cu489      Cu  0.58413456  0.40646813  0.82300886     0.42000
Cu490      Cu  0.63634891  0.41187557  0.82900910     0.43900
N491        N  0.63662153  0.46198406  0.80990186    -0.34100
N492        N  0.64747350  0.44441331  0.81865131    -0.28300
C493        C  0.66619783  0.45111716  0.81917031    -0.04400
C494        C  0.66719241  0.47400738  0.81026422     0.07800
C495        C  0.64815776  0.48023360  0.80466098     0.01600
H496        H  0.67813590  0.44005234  0.82546201     0.09300
H497        H  0.64305179  0.49689091  0.79717354     0.08300
N498        N  0.62128875  0.38126366  0.83698535    -0.35500
N499        N  0.60222873  0.37947104  0.83480743    -0.27700
C500        C  0.59691013  0.35773933  0.84087532    -0.02900
C501        C  0.61341802  0.34510867  0.84723758     0.05700
C502        C  0.62858268  0.36060763  0.84449821     0.03800
H503        H  0.58209651  0.35167847  0.84032533     0.08900
H504        H  0.64384122  0.35707030  0.84756609     0.07700
N505        N  0.07349304  0.42872588  0.70645317    -0.26700
N506        N  0.08272003  0.44798484  0.71347667    -0.34500
C507        C  0.06945565  0.46401021  0.72115501     0.01700
C508        C  0.05108883  0.45427478  0.71878561     0.07700
C509        C  0.05432341  0.43197542  0.70944972    -0.05400
H510        H  0.07296413  0.48141982  0.72775448     0.08400
H511        H  0.04345342  0.41897022  0.70501208     0.09600
Cu512      Cu  0.11304601  0.45146311  0.71158895     0.44200
Cu513      Cu  0.08653468  0.39831492  0.69270208     0.42000
Cu514      Cu  0.13787095  0.39911275  0.68770821     0.43900
N515        N  0.14325470  0.44903736  0.70586915    -0.34100
N516        N  0.15193997  0.42989707  0.69707971    -0.28300
C517        C  0.17114056  0.43359868  0.69517617    -0.04400
C518        C  0.17496394  0.45609292  0.70309866     0.07800
C519        C  0.15689583  0.46544978  0.70979909     0.01600
H520        H  0.18163520  0.42074806  0.68851015     0.09300
H521        H  0.15384798  0.48282834  0.71698302     0.08300
N522        N  0.12149545  0.36993451  0.67851633    -0.35500
N523        N  0.10238828  0.36961713  0.68002821    -0.27700
C524        C  0.09596298  0.34843658  0.67291258    -0.02900
C525        C  0.11188384  0.33474200  0.66666442     0.05700
C526        C  0.12777974  0.34897311  0.67052588     0.03800
H527        H  0.08087019  0.34340871  0.67282584     0.08900
H528        H  0.14285493  0.34437553  0.66787467     0.07700
N529        N  0.90752154  0.58094747  0.79259152    -0.26700
N530        N  0.89894886  0.56111070  0.78710404    -0.34500
C531        C  0.91251458  0.54572271  0.77844300     0.01700
C532        C  0.93049860  0.55649979  0.77854597     0.07700
C533        C  0.92669218  0.57875443  0.78770082    -0.05400
H534        H  0.90946620  0.52805609  0.77270944     0.08400
H535        H  0.93714638  0.59241870  0.79058870     0.09600
Cu536      Cu  0.86905946  0.55673800  0.79216928     0.44200
Cu537      Cu  0.89267821  0.61015241  0.80645120     0.42000
Cu538      Cu  0.84069721  0.60706971  0.81797990     0.43900
N539        N  0.83904189  0.55692700  0.79873848    -0.34100
N540        N  0.82876257  0.57486502  0.80792695    -0.28300
C541        C  0.80991693  0.56872525  0.80963798    -0.04400
C542        C  0.80826255  0.54584791  0.80112149     0.07800
C543        C  0.82701713  0.53903511  0.79444299     0.01600
H544        H  0.79835986  0.58010419  0.81675290     0.09300
H545        H  0.83162039  0.52217419  0.78706092     0.08300
N546        N  0.85693630  0.63691406  0.82548093    -0.35500
N547        N  0.87589802  0.63774463  0.82082585    -0.27700
C548        C  0.88232323  0.65895666  0.82723005    -0.02900
C549        C  0.86679296  0.67228886  0.83651234     0.05700
C550        C  0.85083600  0.65774158  0.83513656     0.03800
H551        H  0.89731311  0.66429763  0.82538208     0.08900
H552        H  0.83593136  0.66191407  0.84061901     0.07700
N553        N  0.05375165  0.06607907  0.55773610    -0.26700
N554        N  0.06478500  0.04775058  0.55754112    -0.34500
C555        C  0.05421600  0.02966621  0.54781834     0.01700
C556        C  0.03556021  0.03673862  0.54139610     0.07700
C557        C  0.03571607  0.06002582  0.54792647    -0.05400
H558        H  0.05977889  0.01254490  0.54538726     0.08400
H559        H  0.02372281  0.07170155  0.54569510     0.09600
Cu560      Cu  0.09376060  0.04764795  0.57036973     0.44200
Cu561      Cu  0.06455631  0.09806123  0.57187075     0.42000
Cu562      Cu  0.11602588  0.09936467  0.59841748     0.43900
N563        N  0.12230252  0.04958242  0.58560214    -0.34100
N564        N  0.13070642  0.06851357  0.59625653    -0.28300
C565        C  0.14918938  0.06389246  0.60464499    -0.04400
C566        C  0.15244355  0.04088877  0.59889420     0.07800
C567        C  0.13509315  0.03245820  0.58683316     0.01600
H568        H  0.15940342  0.07637513  0.61405844     0.09300
H569        H  0.13197139  0.01508203  0.57945806     0.08300
N570        N  0.09777835  0.12751585  0.59806142    -0.35500
N571        N  0.07940311  0.12714534  0.58850657    -0.27700
C572        C  0.07211003  0.14827864  0.59167539    -0.02900
C573        C  0.08647613  0.16263099  0.60378583     0.05700
C574        C  0.10257539  0.14883462  0.60750929     0.03800
H575        H  0.05735640  0.15287696  0.58567646     0.08900
H576        H  0.11677978  0.15377194  0.61642210     0.07700
N577        N  0.88877683  0.94083755  0.91749790    -0.26700
N578        N  0.88020179  0.96058453  0.91194765    -0.34500
C579        C  0.89151874  0.97756266  0.92329307     0.01700
C580        C  0.90812752  0.96832580  0.93672174     0.07700
C581        C  0.90598832  0.94489472  0.93262124    -0.05400
H582        H  0.88771696  0.99542143  0.92243873     0.08400
H583        H  0.91592703  0.93177871  0.94062654     0.09600
Cu584      Cu  0.85288886  0.96433123  0.89161552     0.44200
Cu585      Cu  0.87544956  0.90967336  0.90535361     0.42000
Cu586      Cu  0.82444661  0.91492047  0.87663393     0.43900
N587        N  0.82424050  0.96596212  0.87704805    -0.34100
N588        N  0.81328533  0.94774746  0.87220117    -0.28300
C589        C  0.79501719  0.95453055  0.86577612    -0.04400
C590        C  0.79461426  0.97821584  0.86664410     0.07800
C591        C  0.81340665  0.98476116  0.87374051     0.01600
H592        H  0.78294179  0.94305323  0.86167768     0.09300
H593        H  0.81868073  0.00196216  0.87756561     0.08300
N594        N  0.83931937  0.88424277  0.88186175    -0.35500
N595        N  0.85752040  0.88211803  0.89191057    -0.27700
C596        C  0.86216951  0.85978896  0.89173909    -0.02900
C597        C  0.84613985  0.84732894  0.88107012     0.05700
C598        C  0.83202978  0.86344698  0.87509451     0.03800
H599        H  0.87621874  0.85322326  0.89866557     0.08900
H600        H  0.81745701  0.86027873  0.86618508     0.07700
C601        C  0.95578878  0.98710108  0.98056887     0.19300
C602        C  0.97500686  0.97953360  0.97933512    -0.18800
C603        C  0.99007715  0.99279778  0.99266825    -0.11100
C604        C  0.98622173  0.01387588  0.50821423     0.21600
C605        C  0.96693339  0.02120688  0.50999761    -0.20400
C606        C  0.95188439  0.00796738  0.49656811    -0.11200
C607        C  0.00184281  0.02902978  0.52172604    -0.15400
C608        C  0.01974288  0.02167618  0.52935081    -0.29300
C609        C  0.94022155  0.97283880  0.96505269    -0.03500
C610        C  0.92374001  0.98179423  0.95291608    -0.40100
H611        H  0.97844185  0.96352127  0.96726376     0.12700
H612        H  0.00469683  0.98662178  0.98985557     0.12300
H613        H  0.96347053  0.03726584  0.52190949     0.11800
H614        H  0.93721337  0.01409008  0.49909504     0.12000
H615        H  0.99836401  0.04683374  0.52584297     0.14800
H616        H  0.02326771  0.00379170  0.52678474     0.13500
H617        H  0.94282800  0.95472002  0.96207182     0.11200
H618        H  0.92155505  0.00006238  0.45404047     0.13200
C619        C  0.85423875  0.73427704  0.86319880     0.19300
C620        C  0.83747185  0.74765264  0.86151768    -0.18800
C621        C  0.83822329  0.77113771  0.86788028    -0.11100
C622        C  0.85588315  0.78193236  0.87625461     0.21600
C623        C  0.87250750  0.76835493  0.87910824    -0.20400
C624        C  0.87174277  0.74488184  0.87276304    -0.11200
C625        C  0.85776443  0.80705846  0.88238931    -0.15400
C626        C  0.84377772  0.82240280  0.87582804    -0.29300
C627        C  0.85281231  0.70942049  0.85515332    -0.03500
C628        C  0.86808070  0.69679130  0.84551507    -0.40100
H629        H  0.82371822  0.73993864  0.85481042     0.12700
H630        H  0.82485455  0.78051865  0.86625962     0.12300
H631        H  0.88625472  0.77597773  0.88607545     0.11800
H632        H  0.88489691  0.73518503  0.87570872     0.12000
H633        H  0.87154536  0.81323195  0.89198706     0.14800
H634        H  0.82999090  0.81692323  0.86562655     0.13500
H635        H  0.83854970  0.70153612  0.85580643     0.11200
H636        H  0.88228004  0.70463079  0.84330454     0.13200
C637        C  0.09748814  0.27245309  0.64499100     0.19300
C638        C  0.08245880  0.26235103  0.62635450    -0.18800
C639        C  0.08264397  0.23899402  0.61900436    -0.11100
C640        C  0.09780961  0.22506907  0.63065866     0.21600
C641        C  0.11271767  0.23520035  0.64958354    -0.20400
C642        C  0.11255636  0.25852455  0.65681156    -0.11200
C643        C  0.09907309  0.20016685  0.62321110    -0.15400
C644        C  0.08445516  0.18733957  0.61084993    -0.29300
C645        C  0.09672000  0.29733461  0.65247123    -0.03500
C646        C  0.11260146  0.31008204  0.65880170    -0.40100
H647        H  0.07062954  0.27264549  0.61705436     0.12700
H648        H  0.07101323  0.23217252  0.60383005     0.12300
H649        H  0.12455206  0.22497385  0.65903342     0.11800
H650        H  0.12410556  0.26543632  0.67214662     0.12000
H651        H  0.11275223  0.19196391  0.62879018     0.14800
H652        H  0.07041536  0.19479690  0.60600720     0.13500
H653        H  0.08266038  0.30550875  0.65163596     0.11200
H654        H  0.12684714  0.30243120  0.65758588     0.13200
C655        C  0.97267125  0.51622508  0.75320511     0.19300
C656        C  0.97411153  0.49659905  0.73319602    -0.18800
C657        C  0.99213885  0.48673176  0.72644954    -0.11100
C658        C  0.00927471  0.49611907  0.73999965     0.21600
C659        C  0.00784582  0.51585066  0.75975843    -0.20400
C660        C  0.98982400  0.52571310  0.76651067    -0.11200
C661        C  0.02885409  0.48613512  0.73387376    -0.15400
C662        C  0.03169132  0.46439109  0.72430725    -0.29300
C663        C  0.95304875  0.52575650  0.76038099    -0.03500
C664        C  0.94999575  0.54719294  0.77123704    -0.40100
H665        H  0.96120796  0.48890898  0.72252751     0.12700
H666        H  0.99249524  0.47196314  0.71026471     0.12300
H667        H  0.02074118  0.52349808  0.77052076     0.11800
H668        H  0.98948249  0.54044676  0.78276065     0.12000
H669        H  0.04139812  0.49690144  0.73861806     0.14800
H670        H  0.01939527  0.45306049  0.72094485     0.13500
H671        H  0.94061612  0.51478855  0.75575072     0.11200
H672        H  0.96210977  0.55882045  0.77437739     0.13200
C673        C  0.75496280  0.52360248  0.80583845     0.19300
C674        C  0.73667760  0.53400832  0.80602004    -0.18800
C675        C  0.71961298  0.52095645  0.80745581    -0.11100
C676        C  0.72037511  0.49696788  0.80874900     0.21600
C677        C  0.73866305  0.48657531  0.80850888    -0.20400
C678        C  0.75571572  0.49961979  0.80710700    -0.11200
C679        C  0.70272823  0.48209820  0.81166515    -0.15400
C680        C  0.68437924  0.48924690  0.80696466    -0.29300
C681        C  0.77270213  0.53843435  0.80595102    -0.03500
C682        C  0.79080227  0.53094513  0.79979055    -0.40100
H683        H  0.73556907  0.55241380  0.80541406     0.12700
H684        H  0.70599759  0.52989881  0.80829753     0.12300
H685        H  0.73979913  0.46818733  0.80979387     0.11800
H686        H  0.76934948  0.49070741  0.80789641     0.12000
H687        H  0.70507033  0.46425456  0.81758649     0.14800
H688        H  0.68154975  0.50675828  0.79994847     0.13500
H689        H  0.77066724  0.55641710  0.81116145     0.11200
H690        H  0.79321860  0.51328463  0.79322380     0.13200
C691        C  0.21800022  0.49901866  0.71244706     0.19300
C692        C  0.22000565  0.52282178  0.71038663    -0.18800
C693        C  0.23833091  0.53327652  0.71139957    -0.11100
C694        C  0.25527960  0.52011459  0.71459249     0.21600
C695        C  0.25320184  0.49634310  0.71738034    -0.20400
C696        C  0.23489175  0.48591081  0.71639024    -0.11200
C697        C  0.27531208  0.53019121  0.71553022    -0.15400
C698        C  0.27960053  0.55214155  0.70839108    -0.29300
C699        C  0.19810887  0.48865769  0.71142538    -0.03500
C700        C  0.19460501  0.46659119  0.70401776    -0.40100
H701        H  0.20729848  0.53343343  0.70786017     0.12700
H702        H  0.23893282  0.55163874  0.70998562     0.12300
H703        H  0.26585968  0.48570195  0.72034250     0.11800
H704        H  0.23414039  0.46761418  0.71930959     0.12000
H705        H  0.28714007  0.51878029  0.72159221     0.14800
H706        H  0.26822539  0.56386580  0.70147105     0.13500
H707        H  0.18589736  0.49979577  0.71610615     0.11200
H708        H  0.20653681  0.45545679  0.69773364     0.13200
C709        C  0.50190372  0.49740144  0.76890893     0.19300
C710        C  0.50036919  0.51619361  0.74716122    -0.18800
C711        C  0.48227718  0.52526206  0.73885558    -0.11100
C712        C  0.46513051  0.51598001  0.75262888     0.21600
C713        C  0.46664607  0.49708371  0.77422942    -0.20400
C714        C  0.48477211  0.48795640  0.78247345    -0.11200
C715        C  0.44551746  0.52539153  0.74491111    -0.15400
C716        C  0.44274907  0.54686921  0.73396986    -0.29300
C717        C  0.52161934  0.48860869  0.77713490    -0.03500
C718        C  0.52506186  0.46753417  0.78920292    -0.40100
H719        H  0.51325788  0.52378854  0.73620721     0.12700
H720        H  0.48189721  0.53931631  0.72124321     0.12300
H721        H  0.45374598  0.48954214  0.78521127     0.11800
H722        H  0.48522125  0.47382216  0.79994519     0.12000
H723        H  0.43296630  0.51463888  0.74979094     0.14800
H724        H  0.45506694  0.55820591  0.73079653     0.13500
H725        H  0.53385829  0.49973436  0.77174438     0.11200
H726        H  0.51315761  0.45571166  0.79321342     0.13200
C727        C  0.20525976  0.02290838  0.61666628     0.19300
C728        C  0.22305797  0.03448291  0.61480373    -0.18800
C729        C  0.24050547  0.02248434  0.61472019    -0.11100
C730        C  0.24052280  0.99849668  0.61657698     0.21600
C731        C  0.22273308  0.98702396  0.62010641    -0.20400
C732        C  0.20529663  0.99902921  0.62019743    -0.11200
C733        C  0.25859683  0.98475768  0.61515553    -0.15400
C734        C  0.27573233  0.99284638  0.60398754    -0.29300
C735        C  0.18704914  0.03628576  0.61459390    -0.03500
C736        C  0.17025914  0.02738436  0.60340165    -0.40100
H737        H  0.22346253  0.05289460  0.61275967     0.12700
H738        H  0.25382179  0.03219274  0.61333927     0.12300
H739        H  0.22228956  0.96862266  0.62233098     0.11800
H740        H  0.19194532  0.98950382  0.62312450     0.12000
H741        H  0.25750872  0.96696397  0.62249999     0.14800
H742        H  0.27715417  0.01034211  0.59555151     0.13500
H743        H  0.18783352  0.05434080  0.62038780     0.11200
H744        H  0.16949981  0.00964236  0.59590911     0.13200
C745        C  0.35921647  0.74182902  0.64645384     0.19300
C746        C  0.34322276  0.75320739  0.63265322    -0.18800
C747        C  0.34447767  0.77621670  0.62351994    -0.11100
C748        C  0.36181425  0.78853634  0.62824250     0.21600
C749        C  0.37787621  0.77715814  0.64165343    -0.20400
C750        C  0.37661207  0.75416645  0.65092862    -0.11200
C751        C  0.36377572  0.81309598  0.61916537    -0.15400
C752        C  0.34866719  0.82745690  0.61826707    -0.29300
C753        C  0.35688087  0.71734108  0.65612215    -0.03500
C754        C  0.37160124  0.70353685  0.66472579    -0.40100
H755        H  0.32966781  0.74421031  0.62873036     0.12700
H756        H  0.33191577  0.78411989  0.61232713     0.12300
H757        H  0.39141150  0.78621370  0.64549306     0.11800
H758        H  0.38927248  0.74645459  0.66195858     0.12000
H759        H  0.37826674  0.81977080  0.61481834     0.14800
H760        H  0.33426603  0.82133388  0.62461950     0.13500
H761        H  0.34231080  0.71029436  0.65554026     0.11200
H762        H  0.38638580  0.70977442  0.66466765     0.13200
C763        C  0.74251731  0.00252643  0.86180014     0.19300
C764        C  0.72440136  0.99398999  0.85169894    -0.18800
C765        C  0.70775728  0.00736864  0.85414642    -0.11100
C766        C  0.70879993  0.02963634  0.86715372     0.21600
C767        C  0.72696530  0.03849558  0.87619123    -0.20400
C768        C  0.74362272  0.02509072  0.87387401    -0.11200
C769        C  0.69122114  0.04382919  0.87217378    -0.15400
C770        C  0.67376966  0.03460326  0.87898727    -0.29300
C771        C  0.75951619  0.98691319  0.86118410    -0.03500
C772        C  0.77802167  0.99398482  0.86397665    -0.40100
H773        H  0.72307309  0.97677125  0.84215876     0.12700
H774        H  0.69411665  0.00017917  0.84584086     0.12300
H775        H  0.72818504  0.05561234  0.88616075     0.11800
H776        H  0.75709956  0.03236569  0.88265461     0.12000
H777        H  0.69296330  0.06223156  0.87257855     0.14800
H778        H  0.67223698  0.01623125  0.88090555     0.13500
H779        H  0.75657636  0.96878853  0.85881178     0.11200
H780        H  0.78142118  0.01200676  0.86523828     0.13200
C781        C  0.60069217  0.28144523  0.86488313     0.19300
C782        C  0.58410360  0.26994153  0.87669587    -0.18800
C783        C  0.58428074  0.24636023  0.88251733    -0.11100
C784        C  0.60114347  0.23358534  0.87641366     0.21600
C785        C  0.61767305  0.24512567  0.86442460    -0.20400
C786        C  0.61749084  0.26866679  0.85863807    -0.11200
C787        C  0.60240133  0.20837223  0.88175584    -0.15400
C788        C  0.58792833  0.19485900  0.89320569    -0.29300
C789        C  0.59956448  0.30648018  0.85816376    -0.03500
C790        C  0.61510299  0.32036407  0.85457144    -0.40100
H791        H  0.57089275  0.27926585  0.88148210     0.12700
H792        H  0.57112752  0.23844337  0.89162062     0.12300
H793        H  0.63084808  0.23583093  0.85922412     0.11800
H794        H  0.63045333  0.27655953  0.84862632     0.12000
H795        H  0.61619677  0.20054699  0.87588907     0.14800
H796        H  0.57394003  0.20192328  0.89948012     0.13500
H797        H  0.58519099  0.31380465  0.85671715     0.11200
H798        H  0.62961747  0.31371829  0.85745876     0.13200
C799        C  0.49279380  0.01979723  0.49268281     0.19300
C800        C  0.47363818  0.02684368  0.48770558    -0.18800
C801        C  0.45808588  0.01337420  0.49863629    -0.11100
C802        C  0.46130760  0.99261335  0.51558840     0.21600
C803        C  0.48048116  0.98551501  0.02049211    -0.20400
C804        C  0.49607200  0.99897325  0.00934612    -0.11200
C805        C  0.44504830  0.97801302  0.52819636    -0.15400
C806        C  0.42742449  0.98642799  0.53529691    -0.29300
C807        C  0.50879564  0.03486496  0.48051666    -0.03500
C808        C  0.52657265  0.02728276  0.97275902    -0.40100
H809        H  0.47066661  0.04274322  0.47483802     0.12700
H810        H  0.44360404  0.01922806  0.49320999     0.12300
H811        H  0.48342324  0.96963142  0.03341227     0.11800
H812        H  0.51061354  0.99315214  0.01440747     0.12000
H813        H  0.44788529  0.96012405  0.03296392     0.14800
H814        H  0.42475616  0.00451722  0.53244267     0.13500
H815        H  0.50542545  0.05267323  0.47609056     0.11200
H816        H  0.52989356  0.00931717  0.97529044     0.13200
loop_ 
_geom_bond_atom_site_label_1 
_geom_bond_atom_site_label_2 
_geom_bond_distance 
_geom_bond_site_symmetry_2 
_ccdc_geom_bond_type 
N1            N2   1.322       .  A
N1            C5   1.349       .  A
N1           Cu9   2.090       .  S
N2            C3   1.344       .  A
N2           Cu8   2.067       .  S
C3            C4   1.381       .  A
C3            H6   1.082       .  S
C4            C5   1.391       .  A
C4          C400   1.482       .  S
C5            H7   1.081       .  S
Cu8          N11   2.067       .  S
Cu9          N19   2.092       .  S
Cu10         N12   2.087       .  S
Cu10         N18   2.088       .  S
N11          N12   1.322       .  A
N11          C15   1.342       .  A
N12          C13   1.350       .  A
C13          C14   1.390       .  A
C13          H16   1.082       .  S
C14          C15   1.380       .  A
C14         C362   1.479       .  S
C15          H17   1.082       .  S
N18          N19   1.324       .  A
N18          C22   1.347       .  A
N19          C20   1.348       .  A
C20          C21   1.385       .  A
C20          H23   1.082       .  S
C21          C22   1.388       .  A
C21         C380   1.486       .  S
C22          H24   1.081       .  S
N25          N26   1.323       .  A
N25          C29   1.352       .  A
N25         Cu33   2.096       .  S
N26          C27   1.341       .  A
N26         Cu32   2.068       .  S
C27          C28   1.378       .  A
C27          H30   1.082       .  S
C28          C29   1.391       .  A
C28         C398   1.480       .  S
C29          H31   1.082       .  S
Cu32         N35   2.068       .  S
Cu33         N43   2.096       .  S
Cu34         N36   2.071       .  S
Cu34         N42   2.073       .  S
N35          N36   1.320       .  A
N35          C39   1.344       .  A
N36          C37   1.346       .  A
C37          C38   1.388       .  A
C37          H40   1.081       .  S
C38          C39   1.383       .  A
C38         C326   1.479       .  S
C39          H41   1.082   1_565  S
N42          N43   1.324       .  A
N42          C46   1.343       .  A
N43          C44   1.349       .  A
C44          C45   1.389       .  A
C44          H47   1.081       .  S
C45          C46   1.379       .  A
C45         C344   1.480       .  S
C46          H48   1.082       .  S
N49          N50   1.323       .  A
N49          C53   1.341       .  A
N49         Cu57   2.066       .  S
N50          C51   1.354       .  A
N50         Cu56   2.108       .  S
C51          C52   1.393       .  A
C51          H54   1.082       .  S
C52          C53   1.378       .  A
C52         C308   1.483       .  S
C53          H55   1.082       .  S
Cu56         N59   2.109       .  S
Cu57         N67   2.065       .  S
Cu58         N60   2.083       .  S
Cu58         N66   2.081       .  S
N59          N60   1.325       .  A
N59          C63   1.352       .  A
N60          C61   1.345       .  A
C61          C62   1.381       .  A
C61          H64   1.082       .  S
C62          C63   1.392       .  A
C62         C290   1.488       .  S
C63          H65   1.081       .  S
N66          N67   1.320       .  A
N66          C70   1.348       .  A
N67          C68   1.344       .  A
C68          C69   1.382       .  A
C68          H71   1.082       .  S
C69          C70   1.390       .  A
C69         C346   1.481       .  S
C70          H72   1.081       .  S
N73          N74   1.322       .  A
N73          C77   1.345       .  A
N73         Cu81   2.077       .  S
N74          C75   1.349       .  A
N74         Cu80   2.089       .  S
C75          C76   1.390       .  A
C75          H78   1.081       .  S
C76          C77   1.383       .  A
C76         C310   1.485       .  S
C77          H79   1.082       .  S
Cu80         N83   2.090       .  S
Cu81         N91   2.076       .  S
Cu82         N84   2.094       .  S
Cu82         N90   2.094       .  S
N83          N84   1.324       .  A
N83          C87   1.347       .  A
N84          C85   1.349       .  A
C85          C86   1.389       .  A
C85          H88   1.081       .  S
C86          C87   1.384       .  A
C86         C272   1.487       .  S
C87          H89   1.082       .  S
N90          N91   1.323       .  A
N90          C94   1.348       .  A
N91          C92   1.346       .  A
C92          C93   1.386       .  A
C92          H95   1.081       .  S
C93          C94   1.387       .  A
C93         C382   1.485       .  S
C94          H96   1.082       .  S
N97          N98   1.324       .  A
N97         C101   1.344       .  A
N97        Cu105   2.078       .  S
N98          C99   1.352       .  A
N98        Cu104   2.104       .  S
C99         C100   1.391       .  A
C99         H102   1.081       .  S
C100        C101   1.380       .  A
C100        C254   1.485       .  S
C101        H103   1.082       .  S
Cu104       N107   2.104       .  S
Cu105       N115   2.077       .  S
Cu106       N108   2.080       .  S
Cu106       N114   2.079       .  S
N107        N108   1.324       .  A
N107        C111   1.353       .  A
N108        C109   1.344       .  A
C109        C110   1.382       .  A
C109        H112   1.082       .  S
C110        C111   1.392       .  A
C110        C292   1.487       .  S
C111        H113   1.081       .  S
N114        N115   1.321       .  A
N114        C118   1.345       .  A
N115        C116   1.348       .  A
C116        C117   1.388       .  A
C116        H119   1.081       .  S
C117        C118   1.384       .  A
C117        C238   1.482       .  S
C118        H120   1.082       .  S
N121        N122   1.321       .  A
N121        C125   1.345       .  A
N121       Cu129   2.077       .  S
N122        C123   1.350       .  A
N122       Cu128   2.088       .  S
C123        C124   1.390       .  A
C123        H126   1.081       .  S
C124        C125   1.383       .  A
C124        C256   1.485       .  S
C125        H127   1.082       .  S
Cu128       N131   2.089       .  S
Cu129       N139   2.077       .  S
Cu130       N132   2.097       .  S
Cu130       N138   2.096       .  S
N131        N132   1.325       .  A
N131        C135   1.346       .  A
N132        C133   1.350       .  A
C133        C134   1.389       .  A
C133        H136   1.081       .  S
C134        C135   1.383       .  A
C134        C274   1.486       .  S
C135        H137   1.082       .  S
N138        N139   1.323       .  A
N138        C142   1.351       .  A
N139        C140   1.344       .  A
C140        C141   1.382       .  A
C140        H143   1.082       .  S
C141        C142   1.391       .  A
C141        C220   1.485       .  S
C142        H144   1.081       .  S
N145        N146   1.322       .  A
N145        C149   1.351       .  A
N145       Cu153   2.094       .  S
N146        C147   1.342       .  A
N146       Cu152   2.065       .  S
C147        C148   1.379       .  A
C147        H150   1.082       .  S
C148        C149   1.391       .  A
C148        C200   1.481       .  S
C149        H151   1.081       .  S
Cu152       N155   2.065       .  S
Cu153       N163   2.094       .  S
Cu154       N156   2.082       .  S
Cu154       N162   2.083       .  S
N155        N156   1.321       .  A
N155        C159   1.343       .  A
N156        C157   1.348       .  A
C157        C158   1.389       .  A
C157        H160   1.081       .  S
C158        C159   1.380       .  A
C158        C328   1.478       .  S
C159        H161   1.082       .  S
N162        N163   1.325       .  A
N162        C166   1.347       .  A
N163        C164   1.347       .  A
C164        C165   1.385       .  A
C164        H167   1.082       .  S
C165        C166   1.387       .  A
C165        C236   1.485       .  S
C166        H168   1.081       .  S
N169        N170   1.322       .  A
N169        C173   1.352       .  A
N169       Cu177   2.100       .  S
N170        C171   1.342       .  A
N170       Cu176   2.065       .  S
C171        C172   1.379       .  A
C171        H174   1.082       .  S
C172        C173   1.392       .  A
C172        C202   1.481       .  S
C173        H175   1.082       .  S
Cu176       N179   2.064       .  S
Cu177       N187   2.101       .  S
Cu178       N180   2.086       .  S
Cu178       N186   2.088       .  S
N179        N180   1.320       .  A
N179        C183   1.343       .  A
N180        C181   1.349       .  A
C181        C182   1.391       .  A
C181        H184   1.081       .  S
C182        C183   1.381       .  A
C182        C364   1.481       .  S
C183        H185   1.082   1_565  S
N186        N187   1.325       .  A
N186        C190   1.345       .  A
N187        C188   1.351       .  A
C188        C189   1.390       .  A
C188        H191   1.081       .  S
C189        C190   1.382       .  A
C189        C218   1.486       .  S
C190        H192   1.082       .  S
C193        C194   1.403       .  A
C193        C606   1.409   1_565  A
C193        C201   1.493       .  S
C194        C195   1.401       .  A
C194        H203   1.083       .  S
C195        C604   1.411   1_565  A
C195        H204   1.080   1_655  S
C196        C197   1.404       .  A
C196        C603   1.411   1_544  A
C196        C199   1.495   1_655  S
C197        C198   1.400   1_554  A
C197        H205   1.083       .  S
C198        C601   1.409   1_545  A
C198        H206   1.082       .  S
C199        H207   1.086   1_455  S
C199        C200   1.346       .  D
C200        H208   1.084       .  S
C201        H209   1.086       .  S
C201        C202   1.345       .  D
C202        H618   1.085   1_565  S
H210        C610   1.085   1_545  S
C211        C212   1.404       .  A
C211        C216   1.409       .  A
C211        C219   1.497       .  S
C212        C213   1.402       .  A
C212        H221   1.083       .  S
C213        C214   1.411       .  A
C213        H222   1.079       .  S
C214        C215   1.406       .  A
C214        C217   1.500       .  S
C215        C216   1.402       .  A
C215        H223   1.083       .  S
C216        H224   1.081       .  S
C217        H225   1.086       .  S
C217        C218   1.349       .  D
C218        H226   1.082       .  S
C219        H227   1.086       .  S
C219        C220   1.348       .  D
C220        H228   1.084       .  S
C229        C230   1.404       .  A
C229        C234   1.407       .  A
C229        C237   1.492       .  S
C230        C231   1.402       .  A
C230        H239   1.083       .  S
C231        C232   1.410       .  A
C231        H240   1.080       .  S
C232        C233   1.405       .  A
C232        C235   1.495       .  S
C233        C234   1.399       .  A
C233        H241   1.083       .  S
C234        H242   1.081       .  S
C235        H243   1.085       .  S
C235        C236   1.349       .  D
C236        H244   1.083       .  S
C237        H245   1.086       .  S
C237        C238   1.348       .  D
C238        H246   1.085       .  S
C247        C248   1.405       .  A
C247        C252   1.409       .  A
C247        C255   1.496       .  S
C248        C249   1.402       .  A
C248        H257   1.083       .  S
C249        C250   1.410   1_655  A
C249        H258   1.081       .  S
C250        C251   1.404       .  A
C250        C253   1.497       .  S
C251        C252   1.401   1_455  A
C251        H259   1.083       .  S
C252        H260   1.081       .  S
C253        H261   1.086       .  S
C253        C254   1.348       .  D
C254        H262   1.084       .  S
C255        H263   1.086       .  S
C255        C256   1.348       .  D
C256        H264   1.084       .  S
C265        C266   1.406       .  A
C265        C270   1.409       .  A
C265        C273   1.498       .  S
C266        C267   1.403       .  A
C266        H275   1.083       .  S
C267        C268   1.410       .  A
C267        H276   1.080       .  S
C268        C269   1.406       .  A
C268        C271   1.499       .  S
C269        C270   1.402       .  A
C269        H277   1.083       .  S
C270        H278   1.080       .  S
C271        H279   1.086       .  S
C271        C272   1.350       .  D
C272        H280   1.083       .  S
C273        H281   1.086       .  S
C273        C274   1.350       .  D
C274        H282   1.083       .  S
C283        C284   1.405       .  A
C283        C288   1.410       .  A
C283        C291   1.499       .  S
C284        C285   1.404       .  A
C284        H293   1.083       .  S
C285        C286   1.412       .  A
C285        H294   1.079       .  S
C286        C287   1.406       .  A
C286        C289   1.502       .  S
C287        C288   1.402       .  A
C287        H295   1.083       .  S
C288        H296   1.081       .  S
C289        H297   1.086       .  S
C289        C290   1.349       .  D
C290        H298   1.082       .  S
C291        H299   1.086       .  S
C291        C292   1.349       .  D
C292        H300   1.084       .  S
C301        C302   1.404       .  A
C301        C306   1.410       .  A
C301        C309   1.495       .  S
C302        C303   1.400       .  A
C302        H311   1.083       .  S
C303        C304   1.410       .  A
C303        H312   1.081       .  S
C304        C305   1.405       .  A
C304        C307   1.497       .  S
C305        C306   1.403       .  A
C305        H313   1.083       .  S
C306        H314   1.081       .  S
C307        H315   1.086       .  S
C307        C308   1.347       .  D
C308        H316   1.084       .  S
C309        H317   1.086       .  S
C309        C310   1.348       .  D
C310        H318   1.084       .  S
C319        C320   1.402       .  A
C319        C324   1.408   1_545  A
C319        C327   1.488       .  S
C320        C321   1.399       .  A
C320        H329   1.083       .  S
C321        C322   1.409   1_545  A
C321        H330   1.080       .  S
C322        C323   1.404       .  A
C322        C325   1.491       .  S
C323        C324   1.398       .  A
C323        H331   1.083       .  S
C324        H332   1.081       .  S
C325        H333   1.086       .  S
C325        C326   1.347       .  D
C326        H334   1.083   1_565  S
C327        H335   1.086       .  S
C327        C328   1.345       .  D
C328        H336   1.084       .  S
C337        C338   1.405       .  A
C337        C342   1.410       .  A
C337        C345   1.494       .  S
C338        C339   1.399       .  A
C338        H347   1.083       .  S
C339        C340   1.408       .  A
C339        H348   1.081       .  S
C340        C341   1.403       .  A
C340        C343   1.490       .  S
C341        C342   1.400       .  A
C341        H349   1.083       .  S
C342        H350   1.079       .  S
C343        H351   1.086       .  S
C343        C344   1.345       .  D
C344        H352   1.085       .  S
C345        H353   1.086       .  S
C345        C346   1.347       .  D
C346        H354   1.082       .  S
C355        C356   1.404   1_545  A
C355        C360   1.411       .  A
C355        C363   1.493   1_545  S
C356        C357   1.399   1_565  A
C356        H365   1.083       .  S
C357        C358   1.408       .  A
C357        H366   1.082       .  S
C358        C359   1.402       .  A
C358        C361   1.490       .  S
C359        C360   1.400       .  A
C359        H367   1.083       .  S
C360        H368   1.080       .  S
C361        H369   1.086       .  S
C361        C362   1.345       .  D
C362        H370   1.085       .  S
C363        H371   1.086       .  S
C363        C364   1.346       .  D
C364        H372   1.083   1_565  S
C373        C374   1.406       .  A
C373        C378   1.407       .  A
C373        C381   1.495       .  S
C374        C375   1.402       .  A
C374        H383   1.083       .  S
C375        C376   1.410       .  A
C375        H384   1.079       .  S
C376        C377   1.406       .  A
C376        C379   1.497       .  S
C377        C378   1.400       .  A
C377        H385   1.083       .  S
C378        H386   1.081       .  S
C379        H387   1.085       .  S
C379        C380   1.350       .  D
C380        H388   1.083       .  S
C381        H389   1.085       .  S
C381        C382   1.351       .  D
C382        H390   1.084       .  S
C391        C392   1.402       .  A
C391        C804   1.409   1_546  A
C391        C399   1.491       .  S
C392        C393   1.398       .  A
C392        H401   1.083       .  S
C393        C394   1.409   1_546  A
C393        H402   1.081       .  S
C394        C803   1.404       .  A
C394        C397   1.494       .  S
C395        C396   1.402       .  A
C395        C802   1.404       .  A
C395        H403   1.083       .  S
C396        C799   1.409   1_565  A
C396        H404   1.081       .  S
C397        H813   1.086       .  S
C397        C398   1.346       .  D
C398        H406   1.084   1_565  S
C399        H407   1.086       .  S
C399        C808   1.345       .  D
C400        H408   1.085       .  S
C400        C807   1.345       .  D
H405        C805   1.086       .  S
N409        N410   1.322       .  A
N409        C413   1.349       .  A
N409       Cu417   2.090       .  S
N410        C411   1.344       .  A
N410       Cu416   2.067       .  S
C411        C412   1.381       .  A
C411        H414   1.082       .  S
C412        C413   1.391       .  A
C412        C808   1.482       .  S
C413        H415   1.081       .  S
Cu416       N419   2.067       .  S
Cu417       N427   2.092       .  S
Cu418       N420   2.087       .  S
Cu418       N426   2.088       .  S
N419        N420   1.322       .  A
N419        C423   1.342       .  A
N420        C421   1.350       .  A
C421        C422   1.390       .  A
C421        H424   1.082       .  S
C422        C423   1.380       .  A
C422        C770   1.479       .  S
C423        H425   1.082       .  S
N426        N427   1.324       .  A
N426        C430   1.347       .  A
N427        C428   1.348       .  A
C428        C429   1.385       .  A
C428        H431   1.082       .  S
C429        C430   1.388       .  A
C429        C788   1.486       .  S
C430        H432   1.081       .  S
N433        N434   1.323       .  A
N433        C437   1.352       .  A
N433       Cu441   2.096       .  S
N434        C435   1.341       .  A
N434       Cu440   2.068       .  S
C435        C436   1.378       .  A
C435        H438   1.082       .  S
C436        C437   1.391       .  A
C436        C806   1.480       .  S
C437        H439   1.082       .  S
Cu440       N443   2.068       .  S
Cu441       N451   2.096       .  S
Cu442       N444   2.071       .  S
Cu442       N450   2.073       .  S
N443        N444   1.320       .  A
N443        C447   1.344       .  A
N444        C445   1.346       .  A
C445        C446   1.388       .  A
C445        H448   1.081       .  S
C446        C447   1.383       .  A
C446        C734   1.479       .  S
C447        H449   1.082   1_565  S
N450        N451   1.324       .  A
N450        C454   1.343       .  A
N451        C452   1.350       .  A
C452        C453   1.389       .  A
C452        H455   1.081       .  S
C453        C454   1.379       .  A
C453        C752   1.480       .  S
C454        H456   1.082       .  S
N457        N458   1.323       .  A
N457        C461   1.341       .  A
N457       Cu465   2.066       .  S
N458        C459   1.354       .  A
N458       Cu464   2.108       .  S
C459        C460   1.393       .  A
C459        H462   1.082       .  S
C460        C461   1.378       .  A
C460        C716   1.483       .  S
C461        H463   1.082       .  S
Cu464       N467   2.109       .  S
Cu465       N475   2.066       .  S
Cu466       N468   2.083       .  S
Cu466       N474   2.081       .  S
N467        N468   1.325       .  A
N467        C471   1.352       .  A
N468        C469   1.345       .  A
C469        C470   1.381       .  A
C469        H472   1.082       .  S
C470        C471   1.392       .  A
C470        C698   1.488       .  S
C471        H473   1.081       .  S
N474        N475   1.320       .  A
N474        C478   1.348       .  A
N475        C476   1.344       .  A
C476        C477   1.382       .  A
C476        H479   1.082       .  S
C477        C478   1.390       .  A
C477        C754   1.481       .  S
C478        H480   1.081       .  S
N481        N482   1.322       .  A
N481        C485   1.345       .  A
N481       Cu489   2.077       .  S
N482        C483   1.349       .  A
N482       Cu488   2.089       .  S
C483        C484   1.390       .  A
C483        H486   1.081       .  S
C484        C485   1.383       .  A
C484        C718   1.485       .  S
C485        H487   1.082       .  S
Cu488       N491   2.090       .  S
Cu489       N499   2.076       .  S
Cu490       N492   2.094       .  S
Cu490       N498   2.094       .  S
N491        N492   1.324       .  A
N491        C495   1.347       .  A
N492        C493   1.349       .  A
C493        C494   1.389       .  A
C493        H496   1.081       .  S
C494        C495   1.384       .  A
C494        C680   1.487       .  S
C495        H497   1.082       .  S
N498        N499   1.323       .  A
N498        C502   1.348       .  A
N499        C500   1.346       .  A
C500        C501   1.386       .  A
C500        H503   1.081       .  S
C501        C502   1.387       .  A
C501        C790   1.485       .  S
C502        H504   1.082       .  S
N505        N506   1.324       .  A
N505        C509   1.344       .  A
N505       Cu513   2.078       .  S
N506        C507   1.352       .  A
N506       Cu512   2.104       .  S
C507        C508   1.391       .  A
C507        H510   1.081       .  S
C508        C509   1.380       .  A
C508        C662   1.485       .  S
C509        H511   1.082       .  S
Cu512       N515   2.104       .  S
Cu513       N523   2.077       .  S
Cu514       N516   2.081       .  S
Cu514       N522   2.079       .  S
N515        N516   1.324       .  A
N515        C519   1.353       .  A
N516        C517   1.344       .  A
C517        C518   1.382       .  A
C517        H520   1.082       .  S
C518        C519   1.392       .  A
C518        C700   1.487       .  S
C519        H521   1.081       .  S
N522        N523   1.321       .  A
N522        C526   1.345       .  A
N523        C524   1.348       .  A
C524        C525   1.388       .  A
C524        H527   1.081       .  S
C525        C526   1.384       .  A
C525        C646   1.482       .  S
C526        H528   1.082       .  S
N529        N530   1.321       .  A
N529        C533   1.345       .  A
N529       Cu537   2.077       .  S
N530        C531   1.350       .  A
N530       Cu536   2.088       .  S
C531        C532   1.390       .  A
C531        H534   1.081       .  S
C532        C533   1.383       .  A
C532        C664   1.485       .  S
C533        H535   1.082       .  S
Cu536       N539   2.089       .  S
Cu537       N547   2.077       .  S
Cu538       N540   2.097       .  S
Cu538       N546   2.096       .  S
N539        N540   1.325       .  A
N539        C543   1.346       .  A
N540        C541   1.350       .  A
C541        C542   1.389       .  A
C541        H544   1.081       .  S
C542        C543   1.383       .  A
C542        C682   1.486       .  S
C543        H545   1.082       .  S
N546        N547   1.323       .  A
N546        C550   1.351       .  A
N547        C548   1.344       .  A
C548        C549   1.382       .  A
C548        H551   1.082       .  S
C549        C550   1.391       .  A
C549        C628   1.485       .  S
C550        H552   1.081       .  S
N553        N554   1.322       .  A
N553        C557   1.351       .  A
N553       Cu561   2.094       .  S
N554        C555   1.342       .  A
N554       Cu560   2.065       .  S
C555        C556   1.379       .  A
C555        H558   1.082       .  S
C556        C557   1.391       .  A
C556        C608   1.481       .  S
C557        H559   1.081       .  S
Cu560       N563   2.065       .  S
Cu561       N571   2.094       .  S
Cu562       N564   2.082       .  S
Cu562       N570   2.083       .  S
N563        N564   1.321       .  A
N563        C567   1.343       .  A
N564        C565   1.348       .  A
C565        C566   1.389       .  A
C565        H568   1.081       .  S
C566        C567   1.380       .  A
C566        C736   1.478       .  S
C567        H569   1.082       .  S
N570        N571   1.325       .  A
N570        C574   1.347       .  A
N571        C572   1.347       .  A
C572        C573   1.385       .  A
C572        H575   1.082       .  S
C573        C574   1.387       .  A
C573        C644   1.485       .  S
C574        H576   1.081       .  S
N577        N578   1.322       .  A
N577        C581   1.352       .  A
N577       Cu585   2.100       .  S
N578        C579   1.342       .  A
N578       Cu584   2.065       .  S
C579        C580   1.379       .  A
C579        H582   1.082       .  S
C580        C581   1.392       .  A
C580        C610   1.481       .  S
C581        H583   1.082       .  S
Cu584       N587   2.064       .  S
Cu585       N595   2.101       .  S
Cu586       N588   2.086       .  S
Cu586       N594   2.088       .  S
N587        N588   1.320       .  A
N587        C591   1.343       .  A
N588        C589   1.349       .  A
C589        C590   1.391       .  A
C589        H592   1.081       .  S
C590        C591   1.381       .  A
C590        C772   1.481       .  S
C591        H593   1.082   1_565  S
N594        N595   1.325       .  A
N594        C598   1.345       .  A
N595        C596   1.351       .  A
C596        C597   1.390       .  A
C596        H599   1.081       .  S
C597        C598   1.382       .  A
C597        C626   1.486       .  S
C598        H600   1.082       .  S
C601        C602   1.403       .  A
C601        C609   1.493       .  S
C602        C603   1.401       .  A
C602        H611   1.083       .  S
C603        H612   1.080   1_655  S
C604        C605   1.404       .  A
C604        C607   1.495   1_655  S
C605        C606   1.400       .  A
C605        H613   1.083       .  S
C606        H614   1.082       .  S
C607        H615   1.086   1_455  S
C607        C608   1.346       .  D
C608        H616   1.084       .  S
C609        H617   1.086       .  S
C609        C610   1.345       .  D
C619        C620   1.404       .  A
C619        C624   1.409       .  A
C619        C627   1.497       .  S
C620        C621   1.402       .  A
C620        H629   1.083       .  S
C621        C622   1.411       .  A
C621        H630   1.079       .  S
C622        C623   1.406       .  A
C622        C625   1.500       .  S
C623        C624   1.402       .  A
C623        H631   1.083       .  S
C624        H632   1.081       .  S
C625        H633   1.086       .  S
C625        C626   1.349       .  D
C626        H634   1.082       .  S
C627        H635   1.086       .  S
C627        C628   1.348       .  D
C628        H636   1.084       .  S
C637        C638   1.404       .  A
C637        C642   1.407       .  A
C637        C645   1.492       .  S
C638        C639   1.402       .  A
C638        H647   1.083       .  S
C639        C640   1.410       .  A
C639        H648   1.080       .  S
C640        C641   1.405       .  A
C640        C643   1.495       .  S
C641        C642   1.399       .  A
C641        H649   1.083       .  S
C642        H650   1.081       .  S
C643        H651   1.085       .  S
C643        C644   1.349       .  D
C644        H652   1.083       .  S
C645        H653   1.086       .  S
C645        C646   1.348       .  D
C646        H654   1.085       .  S
C655        C656   1.405       .  A
C655        C660   1.409       .  A
C655        C663   1.496       .  S
C656        C657   1.402       .  A
C656        H665   1.083       .  S
C657        C658   1.410   1_655  A
C657        H666   1.081       .  S
C658        C659   1.404       .  A
C658        C661   1.497       .  S
C659        C660   1.401   1_455  A
C659        H667   1.083       .  S
C660        H668   1.081       .  S
C661        H669   1.086       .  S
C661        C662   1.348       .  D
C662        H670   1.084       .  S
C663        H671   1.086       .  S
C663        C664   1.348       .  D
C664        H672   1.084       .  S
C673        C674   1.406       .  A
C673        C678   1.409       .  A
C673        C681   1.498       .  S
C674        C675   1.403       .  A
C674        H683   1.083       .  S
C675        C676   1.410       .  A
C675        H684   1.080       .  S
C676        C677   1.406       .  A
C676        C679   1.499       .  S
C677        C678   1.402       .  A
C677        H685   1.083       .  S
C678        H686   1.080       .  S
C679        H687   1.086       .  S
C679        C680   1.350       .  D
C680        H688   1.083       .  S
C681        H689   1.086       .  S
C681        C682   1.350       .  D
C682        H690   1.083       .  S
C691        C692   1.405       .  A
C691        C696   1.410       .  A
C691        C699   1.499       .  S
C692        C693   1.404       .  A
C692        H701   1.083       .  S
C693        C694   1.412       .  A
C693        H702   1.079       .  S
C694        C695   1.406       .  A
C694        C697   1.502       .  S
C695        C696   1.402       .  A
C695        H703   1.083       .  S
C696        H704   1.081       .  S
C697        H705   1.086       .  S
C697        C698   1.349       .  D
C698        H706   1.082       .  S
C699        H707   1.086       .  S
C699        C700   1.349       .  D
C700        H708   1.084       .  S
C709        C710   1.404       .  A
C709        C714   1.410       .  A
C709        C717   1.495       .  S
C710        C711   1.400       .  A
C710        H719   1.083       .  S
C711        C712   1.410       .  A
C711        H720   1.081       .  S
C712        C713   1.405       .  A
C712        C715   1.497       .  S
C713        C714   1.403       .  A
C713        H721   1.083       .  S
C714        H722   1.081       .  S
C715        H723   1.086       .  S
C715        C716   1.347       .  D
C716        H724   1.084       .  S
C717        H725   1.086       .  S
C717        C718   1.348       .  D
C718        H726   1.084       .  S
C727        C728   1.402       .  A
C727        C732   1.408   1_545  A
C727        C735   1.488       .  S
C728        C729   1.399       .  A
C728        H737   1.083       .  S
C729        C730   1.409   1_545  A
C729        H738   1.080       .  S
C730        C731   1.404       .  A
C730        C733   1.491       .  S
C731        C732   1.399       .  A
C731        H739   1.083       .  S
C732        H740   1.081       .  S
C733        H741   1.086       .  S
C733        C734   1.347       .  D
C734        H742   1.083   1_565  S
C735        H743   1.086       .  S
C735        C736   1.345       .  D
C736        H744   1.084       .  S
C745        C746   1.405       .  A
C745        C750   1.410       .  A
C745        C753   1.494       .  S
C746        C747   1.399       .  A
C746        H755   1.083       .  S
C747        C748   1.408       .  A
C747        H756   1.081       .  S
C748        C749   1.403       .  A
C748        C751   1.490       .  S
C749        C750   1.400       .  A
C749        H757   1.083       .  S
C750        H758   1.079       .  S
C751        H759   1.086       .  S
C751        C752   1.345       .  D
C752        H760   1.085       .  S
C753        H761   1.086       .  S
C753        C754   1.347       .  D
C754        H762   1.082       .  S
C763        C764   1.404   1_545  A
C763        C768   1.411       .  A
C763        C771   1.493   1_545  S
C764        C765   1.399   1_565  A
C764        H773   1.083       .  S
C765        C766   1.408       .  A
C765        H774   1.082       .  S
C766        C767   1.402       .  A
C766        C769   1.490       .  S
C767        C768   1.400       .  A
C767        H775   1.083       .  S
C768        H776   1.080       .  S
C769        H777   1.086       .  S
C769        C770   1.345       .  D
C770        H778   1.085       .  S
C771        H779   1.086       .  S
C771        C772   1.346       .  D
C772        H780   1.083   1_565  S
C781        C782   1.406       .  A
C781        C786   1.407       .  A
C781        C789   1.495       .  S
C782        C783   1.402       .  A
C782        H791   1.083       .  S
C783        C784   1.410       .  A
C783        H792   1.079       .  S
C784        C785   1.406       .  A
C784        C787   1.497       .  S
C785        C786   1.400       .  A
C785        H793   1.083       .  S
C786        H794   1.081       .  S
C787        H795   1.085       .  S
C787        C788   1.350       .  D
C788        H796   1.082       .  S
C789        H797   1.085       .  S
C789        C790   1.351       .  D
C790        H798   1.084       .  S
C799        C800   1.402       .  A
C799        C807   1.491       .  S
C800        C801   1.398       .  A
C800        H809   1.083       .  S
C801        C802   1.409   1_545  A
C801        H810   1.081       .  S
C802        C805   1.494       .  S
C803        C804   1.402       .  A
C803        H811   1.083       .  S
C804        H812   1.081       .  S
C805        C806   1.346       .  D
C806        H814   1.084   1_565  S
C807        H815   1.086       .  S
C808        H816   1.085       .  S
