geometry optimzed in LAMMPS
_audit_creation_date              2020-12-01 
_audit_creation_method            'lammps2cif' 
_symmetry_space_group_name_H-M    'P1' 
_symmetry_Int_Tables_number       1 
_symmetry_cell_setting            triclinic 
loop_ 
_symmetry_equiv_pos_as_xyz 
  x,y,z 
_cell_length_a                    42.7240294 
_cell_length_b                    42.82132004673093 
_cell_length_c                    72.64145793234529 
_cell_angle_alpha                 90.099486823486 
_cell_angle_beta                  89.9460000323705 
_cell_angle_gamma                 89.99839835000685 
loop_ 
_atom_site_label 
_atom_site_type_symbol 
_atom_site_fract_x 
_atom_site_fract_y 
_atom_site_fract_z 
_atom_site_charge 
O1          O  0.09889764  0.84311301  0.51587907    -0.71700
O2          O  0.02738331  0.84443849  0.54664324    -0.71900
O3          O  0.03969130  0.86331331  0.51246989    -0.71800
O4          O  0.08642823  0.82420028  0.55018954    -0.71800
O5          O  0.09943573  0.86959576  0.56109045    -0.71700
O6          O  0.05440607  0.90868391  0.52260760    -0.71700
O7          O  0.04076051  0.89023251  0.55672589    -0.71700
O8          O  0.11326914  0.88808244  0.52675903    -0.71900
V9          V  0.06344946  0.84463501  0.53147043     1.35200
V10         V  0.07677771  0.88827577  0.54156270     1.35200
C11         C  0.11843780  0.86526215  0.51614140     0.77600
C12         C  0.02166820  0.86768269  0.55683714     0.77600
C13         C  0.03835283  0.89271298  0.51142070     0.77500
C14         C  0.10043587  0.84018539  0.56229104     0.77400
O15         O  0.86269681  0.83077330  0.70453679    -0.71700
O16         O  0.86837391  0.76282163  0.67113613    -0.71900
O17         O  0.88623142  0.82241228  0.67075716    -0.71800
O18         O  0.84505636  0.77039470  0.70495472    -0.71800
O19         O  0.80003266  0.78643065  0.69465736    -0.71700
O20         O  0.84189177  0.83237087  0.65742047    -0.71700
O21         O  0.82190886  0.77372125  0.66094612    -0.71700
O22         O  0.81987185  0.84569786  0.69115387    -0.71900
V23         V  0.86471563  0.79691391  0.68770917     1.35200
V24         V  0.82170478  0.80940024  0.67634472     1.35200
C25         C  0.84083809  0.85054213  0.70305789     0.77600
C26         C  0.84596685  0.75661679  0.66035778     0.77600
C27         C  0.87137656  0.83487924  0.65768217     0.77500
C28         C  0.81559434  0.76932811  0.70544703     0.77400
O29         O  0.11894079  0.62341725  0.70464619    -0.71700
O30         O  0.12546403  0.69675087  0.67582955    -0.71900
O31         O  0.10035915  0.64021793  0.67102438    -0.71800
O32         O  0.14406043  0.68072375  0.70940517    -0.71800
O33         O  0.18817337  0.66377550  0.69836607    -0.71700
O34         O  0.14416003  0.62400011  0.65929092    -0.71700
O35         O  0.16965450  0.68047231  0.66466417    -0.71700
O36         O  0.16278602  0.60676449  0.69312551    -0.71900
V37         V  0.12311004  0.65986597  0.69006995     1.35200
V38         V  0.16539020  0.64395586  0.67914934     1.35200
C39         C  0.13948611  0.60226848  0.70351695     0.77600
C40         C  0.14851008  0.70109110  0.66522490     0.77600
C41         C  0.11463471  0.62581523  0.65835928     0.77500
C42         C  0.17357948  0.68041900  0.70994325     0.77400
O43         O  0.89040889  0.59559858  0.51295945    -0.71700
O44         O  0.96136712  0.60007705  0.54464251    -0.71900
O45         O  0.95030504  0.57645314  0.51111796    -0.71800
O46         O  0.90186082  0.61969235  0.54636079    -0.71800
O47         O  0.89052115  0.57593443  0.55990570    -0.71700
O48         O  0.93527564  0.53227036  0.52269376    -0.71700
O49         O  0.94899502  0.55497342  0.55604228    -0.71700
O50         O  0.87607652  0.55280469  0.52647608    -0.71900
V51         V  0.92568226  0.59710153  0.52897068     1.35200
V52         V  0.91288506  0.55480495  0.54097883     1.35200
C53         C  0.87075858  0.57362573  0.51456459     0.77600
C54         C  0.96729512  0.57811906  0.55578681     0.77600
C55         C  0.95141774  0.54702662  0.51095409     0.77500
C56         C  0.88889632  0.60541711  0.55949365     0.77400
O57         O  0.61782736  0.56846382  0.77255933    -0.71700
O58         O  0.62654751  0.64449742  0.80005609    -0.71900
O59         O  0.65197861  0.62135531  0.76932806    -0.71800
O60         O  0.59206771  0.59232443  0.80322157    -0.71800
O61         O  0.62869788  0.57070651  0.81951534    -0.71700
O62         O  0.68927613  0.60118068  0.78568065    -0.71700
O63         O  0.66302968  0.62280527  0.81635360    -0.71700
O64         O  0.65546675  0.54805454  0.78854634    -0.71900
V65         V  0.62280489  0.60613040  0.78656121     1.35200
V66         V  0.65834649  0.58590690  0.80216443     1.35200
C67         C  0.63532691  0.54521910  0.77589493     0.77600
C68         C  0.64673210  0.64666907  0.81280477     0.77600
C69         C  0.68086735  0.61788562  0.77221458     0.77500
C70         C  0.60004771  0.57717905  0.81731791     0.77400
O71         O  0.34070054  0.58481253  0.94360021    -0.71700
O72         O  0.41856097  0.58064269  0.91851109    -0.71900
O73         O  0.36693908  0.61568336  0.91556717    -0.71800
O74         O  0.39267532  0.54997420  0.94659935    -0.71800
O75         O  0.37446852  0.51596115  0.92715517    -0.71700
O76         O  0.34638574  0.58241851  0.89654183    -0.71700
O77         O  0.39837872  0.54770010  0.89912004    -0.71700
O78         O  0.32156813  0.55021351  0.92487097    -0.71900
V79         V  0.37923966  0.58212594  0.93071841     1.35200
V80         V  0.36041373  0.54974254  0.91231651     1.35200
C81         C  0.31789001  0.56802615  0.93857871     0.77600
C82         C  0.42173959  0.56315427  0.90458648     0.77600
C83         C  0.35261856  0.61047776  0.90069018     0.77500
C84         C  0.38939219  0.52182408  0.94179515     0.77400
O85         O  0.37197074  0.87683631  0.77919197    -0.71700
O86         O  0.36621469  0.80084815  0.80603602    -0.71900
O87         O  0.33770508  0.82458308  0.77665579    -0.71800
O88         O  0.40114296  0.85289939  0.80863353    -0.71800
O89         O  0.36632423  0.87348501  0.82675202    -0.71700
O90         O  0.30219074  0.84482353  0.79441659    -0.71700
O91         O  0.33112052  0.82176493  0.82377593    -0.71700
O92         O  0.33685335  0.89738567  0.79706416    -0.71900
V93         V  0.36862147  0.83930049  0.79298949     1.35200
V94         V  0.33484255  0.85914898  0.81013757     1.35200
C95         C  0.35511262  0.90005233  0.78345647     0.77600
C96         C  0.34708045  0.79812972  0.81925432     0.77600
C97         C  0.30915394  0.82858634  0.78042165     0.77500
C98         C  0.39475648  0.86759029  0.82323515     0.77400
O99         O  0.66612549  0.85525137  0.94200308    -0.71700
O100        O  0.58944510  0.85796223  0.91534934    -0.71900
O101        O  0.64299274  0.82584849  0.91216995    -0.71800
O102        O  0.61184691  0.88687912  0.94505833    -0.71800
O103        O  0.63030135  0.92383560  0.92775666    -0.71700
O104        O  0.66129621  0.86198840  0.89423849    -0.71700
O105        O  0.60821466  0.89485271  0.89813066    -0.71700
O106        O  0.68500241  0.89171764  0.92454589    -0.71900
V107        V  0.62815734  0.85720343  0.92831802     1.35200
V108        V  0.64615758  0.89235707  0.91154487     1.35200
C109        C  0.68862865  0.87325059  0.93798560     0.77600
C110        C  0.58552866  0.87741049  0.90244390     0.77600
C111        C  0.65603468  0.83326396  0.89719650     0.77500
C112        C  0.61413725  0.91565568  0.94157658     0.77400
O113        O  0.59596840  0.33464088  0.01340768    -0.71700
O114        O  0.52315684  0.32799090  0.04355797    -0.71900
O115        O  0.53636878  0.35559465  0.01142526    -0.71800
O116        O  0.58174548  0.30677308  0.04547431    -0.71800
O117        O  0.59364151  0.34841992  0.06099885    -0.71700
O118        O  0.55168865  0.39788304  0.02525538    -0.71700
O119        O  0.53586482  0.37124712  0.05723092    -0.71700
O120        O  0.61030752  0.37546040  0.02894977    -0.71900
V121        V  0.55965568  0.33210787  0.02866234     1.35200
V122        V  0.57273056  0.37248427  0.04275535     1.35200
C123        C  0.61597494  0.35594633  0.01630822     0.77600
C124        C  0.51730115  0.34843062  0.05570336     0.77600
C125        C  0.53561686  0.38498714  0.01274818     0.77500
C126        C  0.59414079  0.31895893  0.05951908     0.77400
O127        O  0.36523184  0.29997527  0.20817628    -0.71700
O128        O  0.36331643  0.22993803  0.17560400    -0.71900
O129        O  0.38922113  0.28675518  0.17465909    -0.71800
O130        O  0.33989436  0.24240681  0.20909208    -0.71800
O131        O  0.29774876  0.25902253  0.19553050    -0.71700
O132        O  0.34746138  0.30631397  0.16226454    -0.71700
O133        O  0.32218737  0.24936011  0.16241887    -0.71700
O134        O  0.32237459  0.31698644  0.19574734    -0.71900
V135        V  0.36364873  0.26524645  0.19169413     1.35200
V136        V  0.32326480  0.28273602  0.17934135     1.35200
C137        C  0.34376528  0.32035927  0.20756950     0.77600
C138        C  0.34235273  0.22792902  0.16331221     0.77600
C139        C  0.37692014  0.30309813  0.16214837     0.77500
C140        C  0.31051116  0.24176830  0.20748727     0.77400
O141        O  0.61526986  0.09735393  0.20749124    -0.71700
O142        O  0.61475168  0.16551716  0.17416791    -0.71900
O143        O  0.58681200  0.10959287  0.17527113    -0.71800
O144        O  0.64324670  0.15352502  0.20628069    -0.71800
O145        O  0.68242328  0.13426996  0.19092658    -0.71700
O146        O  0.62610391  0.08840410  0.16104091    -0.71700
O147        O  0.65324956  0.14454444  0.15908604    -0.71700
O148        O  0.65531950  0.07772023  0.19319927    -0.71900
V149        V  0.61577332  0.13104214  0.19056494     1.35200
V150        V  0.65350067  0.11151573  0.17640388     1.35200
C151        C  0.63556214  0.07599211  0.20613323     0.77600
C152        C  0.63376195  0.16654933  0.16081863     0.77600
C153        C  0.59683885  0.09201789  0.16256189     0.77500
C154        C  0.67241666  0.15223193  0.20342419     0.77400
O155        O  0.38807181  0.08990868  0.01040433    -0.71700
O156        O  0.45241527  0.08267400  0.04616877    -0.71900
O157        O  0.44725790  0.06718736  0.01057002    -0.71800
O158        O  0.39419945  0.10519557  0.04593781    -0.71800
O159        O  0.37696890  0.05961843  0.05426003    -0.71700
O160        O  0.42931542  0.02163917  0.01820527    -0.71700
O161        O  0.43487959  0.03697678  0.05389714    -0.71700
O162        O  0.37032312  0.04435369  0.01834282    -0.71900
V163        V  0.42009983  0.08530810  0.02832412     1.35200
V164        V  0.40311737  0.04149373  0.03589818     1.35200
C165        C  0.36774765  0.06866308  0.00859709     0.77600
C166        C  0.45417539  0.05891989  0.05644162     0.77600
C167        C  0.44824240  0.03783503  0.00878073     0.77500
C168        C  0.37761839  0.08887897  0.05663948     0.77400
O169        O  0.86303568  0.36334940  0.26882326    -0.71700
O170        O  0.86573016  0.29417843  0.30157181    -0.71900
O171        O  0.83759503  0.30579125  0.26949539    -0.71800
O172        O  0.89138224  0.35098794  0.30091283    -0.71800
O173        O  0.85150252  0.36875364  0.31621510    -0.71700
O174        O  0.79712949  0.32450392  0.28379977    -0.71700
O175        O  0.82508847  0.31240637  0.31591001    -0.71700
O176        O  0.82322023  0.38188781  0.28383392    -0.71900
V177        V  0.86361816  0.32903761  0.28542538     1.35200
V178        V  0.82497311  0.34669047  0.29957447     1.35200
C179        C  0.84280670  0.38465637  0.27088421     0.77600
C180        C  0.84586772  0.29160385  0.31442465     0.77600
C181        C  0.80826866  0.30647145  0.27161118     0.77500
C182        C  0.88087892  0.36630898  0.31443446     0.77400
O183        O  0.13630107  0.34540449  0.44110876    -0.71700
O184        O  0.05869490  0.35507393  0.41605988    -0.71900
O185        O  0.10693074  0.31504655  0.41384256    -0.71800
O186        O  0.08797321  0.38513460  0.44337291    -0.71800
O187        O  0.10846719  0.41588707  0.42284658    -0.71700
O188        O  0.13082543  0.34495078  0.39428105    -0.71700
O189        O  0.08181647  0.38416207  0.39571179    -0.71700
O190        O  0.15809655  0.37706024  0.42166272    -0.71900
V191        V  0.09795826  0.35072036  0.42822362     1.35200
V192        V  0.11950264  0.37986371  0.40902699     1.35200
C193        C  0.16042760  0.35989448  0.43573087     0.77600
C194        C  0.05705720  0.37164182  0.40167855     0.77600
C195        C  0.12210365  0.31789819  0.39901424     0.77500
C196        C  0.09377210  0.41242076  0.43779923     0.77400
O197        O  0.11961427  0.04105612  0.28425180    -0.71700
O198        O  0.11955120  0.11908922  0.30924712    -0.71900
O199        O  0.14761176  0.09702098  0.27904972    -0.71800
O200        O  0.09178372  0.06381423  0.31427091    -0.71800
O201        O  0.13099077  0.05059479  0.33159088    -0.71700
O202        O  0.18713726  0.08015116  0.29491861    -0.71700
O203        O  0.16031411  0.10452178  0.32483702    -0.71700
O204        O  0.15773032  0.02541719  0.30164702    -0.71900
V205        V  0.12045412  0.07989006  0.29694971     1.35200
V206        V  0.15832508  0.06533937  0.31286608     1.35200
C207        C  0.13799577  0.01946592  0.28918473     0.77600
C208        C  0.14009105  0.12513035  0.32127531     0.77600
C209        C  0.17689825  0.09523567  0.28123190     0.77500
C210        C  0.10174691  0.05243217  0.32917601     0.77400
O211        O  0.83815156  0.08995021  0.44705343    -0.71700
O212        O  0.91782375  0.07806251  0.42479155    -0.71900
O213        O  0.86982121  0.11744626  0.41943145    -0.71800
O214        O  0.88659713  0.05126363  0.45220389    -0.71800
O215        O  0.86661601  0.01813618  0.43282562    -0.71700
O216        O  0.84921446  0.08485960  0.40001949    -0.71700
O217        O  0.89692754  0.04530843  0.40553052    -0.71700
O218        O  0.81795612  0.05698138  0.42772376    -0.71900
V219        V  0.87754534  0.08365298  0.43549565     1.35200
V220        V  0.85786363  0.05209124  0.41690209     1.35200
C221        C  0.81457953  0.07482801  0.44143927     0.77600
C222        C  0.92099571  0.05877228  0.41171177     0.77600
C223        C  0.85744975  0.11247481  0.40391932     0.77500
C224        C  0.88119814  0.02333373  0.44765363     0.77400
O225        O  0.60869353  0.32356442  0.70319650    -0.71700
O226        O  0.60530811  0.25272372  0.67133127    -0.71900
O227        O  0.62843172  0.26340427  0.70496156    -0.71800
O228        O  0.58552157  0.31176598  0.66942076    -0.71800
O229        O  0.62962021  0.32331633  0.65627714    -0.71700
O230        O  0.67283105  0.27897245  0.69370240    -0.71700
O231        O  0.65078759  0.26503994  0.66022246    -0.71700
O232        O  0.65174203  0.33813886  0.68995402    -0.71900
V233        V  0.60786538  0.28823213  0.68708509     1.35200
V234        V  0.65043505  0.30123313  0.67536768     1.35200
C235        C  0.63043899  0.34353644  0.70165330     0.77600
C236        C  0.62748158  0.24683490  0.66028302     0.77600
C237        C  0.65797826  0.26220324  0.70506356     0.77500
C238        C  0.60003968  0.32429342  0.65618000     0.77400
O239        O  0.38305289  0.33517114  0.50563576    -0.71700
O240        O  0.45152460  0.33404239  0.53907736    -0.71900
O241        O  0.39387384  0.30943574  0.53846914    -0.71800
O242        O  0.44115274  0.35949736  0.50611581    -0.71800
O243        O  0.42466886  0.40119259  0.52027640    -0.71700
O244        O  0.37463135  0.35093714  0.55140242    -0.71700
O245        O  0.43248495  0.37483485  0.55287263    -0.71700
O246        O  0.36609661  0.37768745  0.51850272    -0.71900
V247        V  0.41698798  0.33535419  0.52252580     1.35200
V248        V  0.39967511  0.37538114  0.53541810     1.35200
C249        C  0.36260277  0.35647641  0.50655685     0.77600
C250        C  0.45365049  0.35433393  0.55171794     0.77600
C251        C  0.37657483  0.32151527  0.55063834     0.77500
C252        C  0.44237669  0.38862548  0.50847472     0.77400
O253        O  0.36948065  0.11190952  0.70190465    -0.71700
O254        O  0.36539805  0.17505321  0.66527661    -0.71900
O255        O  0.34707207  0.17112199  0.70037806    -0.71800
O256        O  0.38788423  0.11720581  0.66681290    -0.71800
O257        O  0.34307723  0.10041706  0.65684917    -0.71700
O258        O  0.30215062  0.15195646  0.69216215    -0.71700
O259        O  0.31974181  0.15791323  0.65700317    -0.71700
O260        O  0.32520746  0.09335347  0.69216309    -0.71900
V261        V  0.36655861  0.14341428  0.68353496     1.35200
V262        V  0.32337003  0.12617461  0.67483976     1.35200
C263        C  0.34839790  0.09120308  0.70285062     0.77600
C264        C  0.34200660  0.17681704  0.65465085     0.77600
C265        C  0.31759461  0.17152761  0.70157417     0.77500
C266        C  0.37260516  0.10091289  0.65545388     0.77400
O267        O  0.59115541  0.09086939  0.51061238    -0.71700
O268        O  0.51870061  0.08774033  0.54079790    -0.71900
O269        O  0.57613855  0.11219709  0.54414520    -0.71800
O270        O  0.53332356  0.06667554  0.50733803    -0.71800
O271        O  0.55085389  0.02336510  0.51884601    -0.71700
O272        O  0.59139134  0.06897884  0.55685756    -0.71700
O273        O  0.53458276  0.04367910  0.55215105    -0.71700
O274        O  0.60811298  0.04823081  0.52324155    -0.71900
V275        V  0.55524966  0.08853653  0.52591679     1.35200
V276        V  0.57104157  0.04689536  0.53749934     1.35200
C277        C  0.61220361  0.07024899  0.51193619     0.77600
C278        C  0.51410453  0.06490353  0.55149179     0.77600
C279        C  0.59034327  0.09851533  0.55706406     0.77500
C280        C  0.53386588  0.03721716  0.50717029     0.77400
O281        O  0.11432181  0.37387947  0.76355270    -0.71700
O282        O  0.11804070  0.29528327  0.78753512    -0.71900
O283        O  0.08351919  0.34716784  0.79169873    -0.71800
O284        O  0.14895928  0.32155701  0.75961555    -0.71800
O285        O  0.18334948  0.34078580  0.77843685    -0.71700
O286        O  0.11797798  0.36444589  0.81114189    -0.71700
O287        O  0.15330468  0.31357688  0.80613639    -0.71700
O288        O  0.14787030  0.39252293  0.78307647    -0.71900
V289        V  0.11687568  0.33495537  0.77591739     1.35200
V290        V  0.14993660  0.35265676  0.79427569     1.35200
C291        C  0.13008943  0.39681008  0.76941507     0.77600
C292        C  0.13665461  0.29092524  0.80079500     0.77600
C293        C  0.08963347  0.35911785  0.80722630     0.77500
C294        C  0.17736322  0.32553155  0.76393653     0.77400
O295        O  0.83694841  0.35004514  0.94205585    -0.71700
O296        O  0.90702152  0.35101449  0.90965691    -0.71900
O297        O  0.89173567  0.38095178  0.94070815    -0.71800
O298        O  0.85240606  0.32015304  0.91115502    -0.71800
O299        O  0.83012067  0.35652845  0.89501791    -0.71700
O300        O  0.87047812  0.41782237  0.92446497    -0.71700
O301        O  0.88486368  0.38741744  0.89354191    -0.71700
O302        O  0.81517352  0.38698416  0.92619626    -0.71900
V303        V  0.87155956  0.35129577  0.92560239     1.35200
V304        V  0.85047406  0.38650743  0.91015755     1.35200
C305        C  0.81380961  0.36794720  0.93949812     0.77600
C306        C  0.90806416  0.36960691  0.89612903     0.77600
C307        C  0.88872210  0.40966679  0.93727847     0.77500
C308        C  0.83468879  0.32781851  0.89803998     0.77400
O309        O  0.85383076  0.06968653  0.77556256    -0.71700
O310        O  0.84587196  0.14393936  0.80372810    -0.71900
O311        O  0.88229039  0.09308873  0.80540043    -0.71800
O312        O  0.81802598  0.12057953  0.77385674    -0.71800
O313        O  0.78337347  0.09643692  0.79047217    -0.71700
O314        O  0.84792680  0.07269471  0.82384388    -0.71700
O315        O  0.80955605  0.12187638  0.82011534    -0.71700
O316        O  0.82133814  0.04646581  0.79406054    -0.71900
V317        V  0.84938578  0.10632722  0.78998921     1.35200
V318        V  0.81624066  0.08465756  0.80677926     1.35200
C319        C  0.83899339  0.04537797  0.78013495     0.77600
C320        C  0.82552485  0.14579101  0.81634822     0.77600
C321        C  0.87622301  0.07901459  0.82023133     0.77500
C322        C  0.78977128  0.11365544  0.77682316     0.77400
O323        O  0.15000612  0.09933093  0.93571998    -0.71700
O324        O  0.07171843  0.09330673  0.91095818    -0.71900
O325        O  0.09602455  0.06872547  0.94132908    -0.71800
O326        O  0.12471030  0.12449205  0.90519503    -0.71800
O327        O  0.13975046  0.08583237  0.88801136    -0.71700
O328        O  0.11588388  0.02959437  0.92627432    -0.71700
O329        O  0.08883932  0.05269458  0.89617793    -0.71700
O330        O  0.16833705  0.06236079  0.91832572    -0.71900
V331        V  0.11116833  0.09574728  0.92302815     1.35200
V332        V  0.12813386  0.05836794  0.90754957     1.35200
C333        C  0.17263633  0.08183238  0.93116600     0.77600
C334        C  0.06681042  0.07149222  0.89952602     0.77600
C335        C  0.09975129  0.03965750  0.93967348     0.77500
C336        C  0.13489831  0.11484467  0.88990451     0.77400
O337        O  0.35000017  0.53809873  0.28169251    -0.71700
O338        O  0.34364027  0.61305675  0.30947367    -0.71900
O339        O  0.38179727  0.56362919  0.30956592    -0.71800
O340        O  0.31246168  0.58768274  0.28119860    -0.71800
O341        O  0.28067165  0.56623692  0.30082119    -0.71700
O342        O  0.35171922  0.53935282  0.32886191    -0.71700
O343        O  0.31362112  0.58945725  0.32911849    -0.71700
O344        O  0.31816999  0.51530836  0.30067733    -0.71900
V345        V  0.34633807  0.57512564  0.29589183     1.35200
V346        V  0.31660190  0.55291699  0.31450411     1.35200
C347        C  0.33486600  0.51397271  0.28632097     0.77600
C348        C  0.32758274  0.61401393  0.32412991     0.77600
C349        C  0.37905620  0.54747258  0.32394901     0.77500
C350        C  0.28486551  0.58169201  0.28614586     0.77400
O351        O  0.65041742  0.57603867  0.44138922    -0.71700
O352        O  0.57737246  0.57029585  0.41165782    -0.71900
O353        O  0.59616792  0.54517866  0.44315593    -0.71800
O354        O  0.63159667  0.60180623  0.40974110    -0.71800
O355        O  0.64989740  0.56341750  0.39333993    -0.71700
O356        O  0.61861602  0.50645191  0.42908649    -0.71700
O357        O  0.59719955  0.53019871  0.39756688    -0.71700
O358        O  0.67220975  0.53952085  0.42501530    -0.71900
V359        V  0.61438528  0.57261454  0.42617729     1.35200
V360        V  0.63425205  0.53560536  0.41157405     1.35200
C361        C  0.67398013  0.55906830  0.43804813     0.77600
C362        C  0.57438639  0.54857592  0.39993911     0.77600
C363        C  0.60058803  0.51618849  0.44168982     0.77500
C364        C  0.64595716  0.59243936  0.39560872     0.77400
O365        O  0.33754145  0.83448374  0.44637986    -0.71700
O366        O  0.41465469  0.83179788  0.42061834    -0.71900
O367        O  0.39074970  0.86736213  0.44749555    -0.71800
O368        O  0.36092209  0.79887817  0.41934864    -0.71800
O369        O  0.34257446  0.83108859  0.39900050    -0.71700
O370        O  0.37221075  0.89941372  0.42706984    -0.71700
O371        O  0.39603717  0.86414886  0.40042728    -0.71700
O372        O  0.31878704  0.86655572  0.42611176    -0.71900
V373        V  0.37555573  0.83370118  0.43306545     1.35200
V374        V  0.35767401  0.86460235  0.41354210     1.35200
C375        C  0.31508984  0.85109676  0.44077293     0.77600
C376        C  0.41878476  0.84816347  0.40636040     0.77600
C377        C  0.38722737  0.89500867  0.44177781     0.77500
C378        C  0.34669629  0.80331777  0.40431767     0.77400
O379        O  0.63112231  0.86363918  0.28195550    -0.71700
O380        O  0.64046860  0.78412872  0.30355934    -0.71900
O381        O  0.60297670  0.83296855  0.30939480    -0.71800
O382        O  0.66892129  0.81481592  0.27625789    -0.71800
O383        O  0.70257156  0.83379988  0.29570584    -0.71700
O384        O  0.63640346  0.85170670  0.32903378    -0.71700
O385        O  0.67432893  0.80298571  0.32289622    -0.71700
O386        O  0.66455061  0.88327277  0.30124360    -0.71900
V387        V  0.63655508  0.82436047  0.29316531     1.35200
V388        V  0.66879390  0.84276012  0.31183855     1.35200
C389        C  0.64617875  0.88700192  0.28774239     0.77600
C390        C  0.65897702  0.77988854  0.31685258     0.77600
C391        C  0.60847261  0.84471487  0.32502695     0.77500
C392        C  0.69703423  0.82020574  0.28061230     0.77400
O393        O  0.11282485  0.79981167  0.21638707    -0.71700
O394        O  0.11232585  0.73639152  0.17965316    -0.71900
O395        O  0.13241042  0.73994383  0.21442569    -0.71800
O396        O  0.09249858  0.79556914  0.18147465    -0.71800
O397        O  0.13768654  0.81108071  0.17138831    -0.71700
O398        O  0.17784835  0.75556804  0.20484986    -0.71700
O399        O  0.15779326  0.75202445  0.17009830    -0.71700
O400        O  0.15800479  0.81548823  0.20639818    -0.71900
V401        V  0.11342779  0.76829284  0.19787039     1.35200
V402        V  0.15698895  0.78334814  0.18847212     1.35200
C403        C  0.13533484  0.81892879  0.21741832     0.77600
C404        C  0.13495247  0.73352902  0.16850882     0.77600
C405        C  0.16184196  0.73729312  0.21481548     0.77500
C406        C  0.10810637  0.81201524  0.17033617     0.77400
O407        O  0.90309403  0.85159089  0.01800139    -0.71700
O408        O  0.97231534  0.85014661  0.05123053    -0.71900
O409        O  0.91405789  0.82699097  0.05147782    -0.71800
O410        O  0.96199178  0.87483263  0.01770497    -0.71800
O411        O  0.94461047  0.91733477  0.03044404    -0.71700
O412        O  0.89810665  0.86966702  0.06469388    -0.71700
O413        O  0.95574646  0.89312507  0.06368258    -0.71700
O414        O  0.88607809  0.89373494  0.03120170    -0.71900
V415        V  0.93750507  0.85171923  0.03477696     1.35200
V416        V  0.92137917  0.89265063  0.04714793     1.35200
C417        C  0.88239160  0.87271817  0.01912297     0.77600
C418        C  0.97552616  0.87117863  0.06338974     0.77600
C419        C  0.89886861  0.84020078  0.06424486     0.77500
C420        C  0.96216819  0.90430718  0.01872400     0.77400
O421        O  0.09938193  0.59149636  0.01195090    -0.71700
O422        O  0.02647491  0.59178130  0.04170943    -0.71900
O423        O  0.08471622  0.61316041  0.04559086    -0.71800
O424        O  0.04059802  0.57018907  0.00816541    -0.71800
O425        O  0.05592492  0.52589141  0.01952098    -0.71700
O426        O  0.09734825  0.56900995  0.05814659    -0.71700
O427        O  0.03962327  0.54679339  0.05299265    -0.71700
O428        O  0.11402097  0.54803177  0.02457592    -0.71900
V429        V  0.06314306  0.59078096  0.02703185     1.35200
V430        V  0.07654688  0.54825445  0.03852926     1.35200
C431        C  0.11933372  0.56980729  0.01327967     0.77600
C432        C  0.02072666  0.56949901  0.05258484     0.77600
C433        C  0.09747050  0.59852681  0.05868859     0.77500
C434        C  0.04036675  0.54070954  0.00759286     0.77400
O435        O  0.86519415  0.60586359  0.20226487    -0.71700
O436        O  0.87172452  0.67949532  0.17339877    -0.71900
O437        O  0.84813714  0.66630755  0.20640313    -0.71800
O438        O  0.88906258  0.61994797  0.16917749    -0.71800
O439        O  0.84443124  0.61074353  0.15598431    -0.71700
O440        O  0.80316985  0.65505071  0.19423995    -0.71700
O441        O  0.82632702  0.66967130  0.16137235    -0.71700
O442        O  0.82101079  0.59502839  0.18905180    -0.71900
V443        V  0.86762751  0.64257823  0.18765163     1.35200
V444        V  0.82455113  0.63267039  0.17550215     1.35200
C445        C  0.84235422  0.58735561  0.20019334     0.77600
C446        C  0.85007141  0.68715085  0.16243325     0.77600
C447        C  0.81881500  0.66995950  0.20613344     0.77500
C448        C  0.87394697  0.60863088  0.15580424     0.77400
C449        C  0.95341828  0.59976387  0.08162200    -0.27500
C450        C  0.94775427  0.57407007  0.09304454     0.02100
C451        C  0.96378034  0.54592640  0.08991094     0.30200
C452        C  0.98637300  0.54422264  0.07598613    -0.19300
C453        C  0.99355257  0.57054225  0.06521147    -0.28700
C454        C  0.97623166  0.59829346  0.06786241     0.44200
C455        C  0.92750321  0.57823828  0.10928808     0.05400
O456        O  0.95749530  0.52009125  0.10043914    -0.57200
H457        H  0.99899258  0.52251836  0.07405106     0.18300
O458        O  0.98214624  0.62452695  0.05762099    -0.63900
H459        H  0.94118842  0.62158287  0.08399558     0.16800
C460        C  0.94053541  0.57779681  0.12705670     0.29000
C461        C  0.92220720  0.58595357  0.14223102    -0.24800
C462        C  0.89087980  0.59509930  0.13997220    -0.24100
C463        C  0.87762589  0.59476518  0.12217469     0.40500
C464        C  0.89597849  0.58633507  0.10699440    -0.26600
O465        O  0.97161785  0.57104241  0.12962372    -0.58500
H466        H  0.93294642  0.58632566  0.15573795     0.16100
O467        O  0.84735010  0.60422238  0.11929880    -0.59900
H468        H  0.88592639  0.58721460  0.09331396     0.14600
H469        H  0.99752541  0.63671405  0.06491041     0.46400
H470        H  0.98269538  0.59124713  0.12816986     0.41800
H471        H  0.84867317  0.62701896  0.11700986     0.45300
H472        H  0.97574057  0.51777697  0.10875494     0.36700
C473        C  0.86395704  0.77270816  0.09068644    -0.27500
C474        C  0.86496911  0.78437429  0.10874355     0.02100
C475        C  0.87446904  0.81538576  0.11182965     0.30200
C476        C  0.88382922  0.83393101  0.09700298    -0.19300
C477        C  0.88426898  0.82177060  0.07902629    -0.28700
C478        C  0.87356303  0.79114171  0.07587533     0.44200
C479        C  0.85906008  0.76290862  0.12423138     0.05400
O480        O  0.87585557  0.82734924  0.12933840    -0.57200
H481        H  0.89222439  0.85737730  0.09969550     0.18300
O482        O  0.87330113  0.77866754  0.05847450    -0.63900
H483        H  0.85700460  0.74875356  0.08814635     0.16800
C484        C  0.83098371  0.74596816  0.12541549     0.29000
C485        C  0.82782821  0.72239904  0.13857359    -0.24800
C486        C  0.85262242  0.71506319  0.15054658    -0.24100
C487        C  0.88010566  0.73333229  0.14997982     0.40500
C488        C  0.88308249  0.75706337  0.13690409    -0.26600
O489        O  0.80655473  0.75236628  0.11376036    -0.58500
H490        H  0.80621817  0.70918075  0.13895524     0.16100
O491        O  0.90452929  0.72777851  0.16177145    -0.59900
H492        H  0.90485477  0.76997636  0.13610071     0.14600
H493        H  0.85305754  0.78529627  0.05307364     0.46400
H494        H  0.80621798  0.73491241  0.10476952     0.41800
H495        H  0.91906076  0.71401470  0.15485104     0.45300
H496        H  0.85424734  0.83435483  0.13214367     0.36700
C497        C  0.04394501  0.84653079  0.14048708    -0.27500
C498        C  0.06043011  0.85286130  0.12422229     0.02100
C499        C  0.09319403  0.84969358  0.12404850     0.30200
C500        C  0.10882048  0.83855254  0.13970707    -0.19300
C501        C  0.09205507  0.82981399  0.15556477    -0.28700
C502        C  0.05938400  0.83487293  0.15602304     0.44200
C503        C  0.04259058  0.86009742  0.10725841     0.05400
O504        O  0.11002845  0.85728210  0.10859838    -0.57200
H505        H  0.13392829  0.83519663  0.13904656     0.18300
O506        O  0.04219860  0.82807311  0.17147287    -0.63900
H507        H  0.01872542  0.84920347  0.14085639     0.16800
C508        C  0.04150436  0.83856903  0.09259557     0.29000
C509        C  0.02078960  0.84327543  0.07790124    -0.24800
C510        C  0.00067272  0.86928465  0.07756025    -0.24100
C511        C  0.00318638  0.89173578  0.09181632     0.40500
C512        C  0.02369156  0.88679698  0.10657504    -0.26600
O513        O  0.05944178  0.81200532  0.09295577    -0.58500
H514        H  0.01957086  0.82575786  0.06715058     0.16100
O515        O  0.98471968  0.91792293  0.09198841    -0.59900
H516        H  0.02426190  0.90349741  0.11779572     0.14600
H517        H  0.03208793  0.80768652  0.16886849     0.46400
H518        H  0.04699879  0.79658826  0.10003711     0.41800
H519        H  0.99675416  0.93385376  0.08506026     0.45300
H520        H  0.11656296  0.83706732  0.10313292     0.36700
C521        C  0.15721848  0.68518257  0.12653450    -0.27500
C522        C  0.12930427  0.66901963  0.12332108     0.02100
C523        C  0.10409846  0.67244049  0.13558168     0.30200
C524        C  0.10667510  0.69262667  0.15063514    -0.19300
C525        C  0.13419818  0.70989729  0.15360329    -0.28700
C526        C  0.15988432  0.70549184  0.14156324     0.44200
C527        C  0.12547278  0.65075064  0.10630618     0.05400
O528        O  0.07652044  0.65681599  0.13263368    -0.57200
H529        H  0.08666310  0.69547564  0.15965128     0.18300
O530        O  0.18764584  0.72092141  0.14426444    -0.63900
H531        H  0.17673317  0.68257073  0.11711515     0.16800
C532        C  0.11914821  0.66602138  0.08964066     0.29000
C533        C  0.11154664  0.64862079  0.07400128    -0.24800
C534        C  0.11036408  0.61581368  0.07465428    -0.24100
C535        C  0.11846441  0.60053630  0.09122132     0.40500
C536        C  0.12563749  0.61808779  0.10694258    -0.26600
O537        O  0.11834144  0.69801462  0.08883396    -0.58500
H538        H  0.10549397  0.66097198  0.06149780     0.16100
O539        O  0.11765881  0.56861254  0.09256588    -0.59900
H540        H  0.13049921  0.60622337  0.11979035     0.14600
H541        H  0.18688303  0.73918382  0.13589469     0.46400
H542        H  0.13990641  0.70435721  0.08544294     0.41800
H543        H  0.13920905  0.56164741  0.08956646     0.45300
H544        H  0.06405807  0.67066191  0.12452342     0.36700
C545        C  0.76751284  0.77374885  0.26633006    -0.27500
C546        C  0.76161981  0.77000034  0.24746703     0.02100
C547        C  0.73807252  0.78808255  0.23907985     0.30200
C548        C  0.71837766  0.80658060  0.24990216    -0.19300
C549        C  0.72251572  0.80810788  0.26901931    -0.28700
C550        C  0.74826856  0.79283571  0.27710547     0.44200
C551        C  0.77678869  0.74412644  0.23732146     0.05400
O552        O  0.73287237  0.78624499  0.22048176    -0.57200
H553        H  0.69887632  0.81851109  0.24347833     0.18300
O554        O  0.75300616  0.79390374  0.29576506    -0.63900
H555        H  0.78545793  0.75998429  0.27302229     0.16800
C556        C  0.80944786  0.74017745  0.23724135     0.29000
C557        C  0.82272045  0.71494970  0.22776636    -0.24800
C558        C  0.80381246  0.69331343  0.21829712    -0.24100
C559        C  0.77102559  0.69688457  0.21889756     0.40500
C560        C  0.75785064  0.72204734  0.22836813    -0.26600
O561        O  0.82859358  0.76177319  0.24549951    -0.58500
H562        H  0.84799389  0.71304169  0.22730539     0.16100
O563        O  0.75157687  0.67649400  0.20988323    -0.59900
H564        H  0.73259333  0.72430530  0.22874231     0.14600
H565        H  0.74093463  0.77604653  0.30075183     0.46400
H566        H  0.83692962  0.75130330  0.25663307     0.41800
H567        H  0.74715162  0.65970449  0.21890372     0.45300
H568        H  0.74748791  0.80157890  0.21494182     0.36700
C569        C  0.49997329  0.82697531  0.38864485    -0.27500
C570        C  0.50588333  0.85207056  0.37669487     0.02100
C571        C  0.48415883  0.87675772  0.37579261     0.30200
C572        C  0.45613898  0.87509564  0.38560854    -0.19300
C573        C  0.44946015  0.84941205  0.39692419    -0.28700
C574        C  0.47213062  0.82566216  0.39886914     0.44200
C575        C  0.53298208  0.85120867  0.36390413     0.05400
O576        O  0.48982566  0.90241599  0.36501272    -0.57200
H577        H  0.43951824  0.89407903  0.38431823     0.18300
O578        O  0.46702274  0.80068193  0.41027747    -0.63900
H579        H  0.51634368  0.80772587  0.38951339     0.16800
C580        C  0.56376953  0.84568143  0.37004749     0.29000
C581        C  0.58851787  0.84491859  0.35732696    -0.24800
C582        C  0.58285230  0.84892430  0.33842197    -0.24100
C583        C  0.55212869  0.85473010  0.33237378     0.40500
C584        C  0.52757429  0.85562391  0.34502291    -0.26600
O585        O  0.56995533  0.84174858  0.38842937    -0.58500
H586        H  0.61202393  0.84027172  0.36219730     0.16100
O587        O  0.54575816  0.85944099  0.31408310    -0.59900
H588        H  0.50401805  0.85944603  0.33999237     0.14600
H589        H  0.45672934  0.78469274  0.40246345     0.46400
H590        H  0.57443708  0.81916417  0.38992665     0.41800
H591        H  0.54997273  0.88191976  0.31191732     0.45300
H592        H  0.50255860  0.91659293  0.37279577     0.36700
C593        C  0.66959237  0.66900480  0.37498843    -0.27500
C594        C  0.66299737  0.66393404  0.35631921     0.02100
C595        C  0.65468810  0.63375965  0.35027302     0.30200
C596        C  0.65162165  0.60952753  0.36311980    -0.19300
C597        C  0.65622154  0.61536974  0.38193042    -0.28700
C598        C  0.66635199  0.64502635  0.38773367     0.44200
C599        C  0.66344175  0.69112019  0.34384605     0.05400
O600        O  0.64970330  0.62785221  0.33192474    -0.57200
H601        H  0.64390854  0.58671158  0.35850896     0.18300
O602        O  0.67192538  0.65115022  0.40598396    -0.63900
H603        H  0.67609614  0.69205286  0.37984484     0.16800
C604        C  0.63654457  0.69993113  0.33393698     0.29000
C605        C  0.63606184  0.72831422  0.32450027    -0.24800
C606        C  0.66168712  0.74880849  0.32534472    -0.24100
C607        C  0.68882153  0.73970891  0.33491283     0.40500
C608        C  0.68957206  0.71095876  0.34397153    -0.26600
O609        O  0.60996165  0.68197864  0.33430165    -0.58500
H610        H  0.61489180  0.73503564  0.31731837     0.16100
O611        O  0.71431701  0.75911205  0.33596071    -0.59900
H612        H  0.71030640  0.70458168  0.35168490     0.14600
H613        H  0.69407182  0.64514242  0.40801527     0.46400
H614        H  0.59793873  0.68945395  0.34513376     0.41800
H615        H  0.73114039  0.74840066  0.32896562     0.45300
H616        H  0.62724359  0.62225398  0.33084783     0.36700
C617        C  0.17371331  0.66681391  0.24598440    -0.27500
C618        C  0.20609166  0.66211059  0.24459989     0.02100
C619        C  0.22397688  0.68283350  0.23374903     0.30200
C620        C  0.20942345  0.70752154  0.22448382    -0.19300
C621        C  0.17696397  0.71231592  0.22587422    -0.28700
C622        C  0.15914390  0.69159370  0.23682323     0.44200
C623        C  0.22131534  0.63634152  0.25497192     0.05400
O624        O  0.25579179  0.67933287  0.23218435    -0.57200
H625        H  0.22366113  0.72282445  0.21606996     0.18300
O626        O  0.12743998  0.69533077  0.23880834    -0.63900
H627        H  0.15951765  0.65101968  0.25409390     0.16800
C628        C  0.21686990  0.63296318  0.27413237     0.29000
C629        C  0.23561009  0.61213824  0.28413364    -0.24800
C630        C  0.25896340  0.59475254  0.27526184    -0.24100
C631        C  0.26141226  0.59600182  0.25593742     0.40500
C632        C  0.24240646  0.61640631  0.24592079    -0.26600
O633        O  0.19659058  0.65212713  0.28346559    -0.58500
H634        H  0.23374387  0.61169562  0.29900996     0.16100
O635        O  0.28317096  0.57812821  0.24682482    -0.59900
H636        H  0.24532285  0.61782113  0.23112607     0.14600
H637        H  0.11793167  0.68105798  0.22961308     0.46400
H638        H  0.17828159  0.63882427  0.28645892     0.41800
H639        H  0.30055179  0.59258325  0.24377044     0.45300
H640        H  0.26468741  0.69048312  0.24294841     0.36700
C641        C  0.46407938  0.54279638  0.33860038    -0.27500
C642        C  0.46141874  0.53332013  0.35694875     0.02100
C643        C  0.43173605  0.52521051  0.36394844     0.30200
C644        C  0.40499140  0.52845601  0.35288578    -0.19300
C645        C  0.40748586  0.53968657  0.33476489    -0.28700
C646        C  0.43764047  0.54578717  0.32750554     0.44200
C647        C  0.48952654  0.53476179  0.36884944     0.05400
O648        O  0.42855384  0.51492220  0.38171620    -0.57200
H649        H  0.38223772  0.52325606  0.35871217     0.18300
O650        O  0.44162630  0.55597626  0.30976352    -0.63900
H651        H  0.48673371  0.54913177  0.33301271     0.16800
C652        C  0.51728120  0.51909390  0.36395532     0.29000
C653        C  0.54461301  0.52378294  0.37419725    -0.24800
C654        C  0.54496282  0.54424383  0.38937476    -0.24100
C655        C  0.51697086  0.55964452  0.39436399     0.40500
C656        C  0.48956944  0.55465221  0.38420534    -0.26600
O657        O  0.51804080  0.49951255  0.34899673    -0.58500
H658        H  0.56570989  0.51158681  0.37007720     0.16100
O659        O  0.51592446  0.57933020  0.40926148    -0.59900
H660        H  0.46847814  0.56717904  0.38798965     0.14600
H661        H  0.44385107  0.53671544  0.30227601     0.46400
H662        H  0.51168650  0.47879030  0.35379209     0.41800
H663        H  0.51899994  0.60056293  0.40413246     0.45300
H664        H  0.43309993  0.49222452  0.38118957     0.36700
C665        C  0.30346358  0.67356494  0.36045395    -0.27500
C666        C  0.32421668  0.69814953  0.35673356     0.02100
C667        C  0.34561611  0.69509770  0.34205397     0.30200
C668        C  0.34596096  0.66784506  0.33139834    -0.19300
C669        C  0.32553613  0.64301700  0.33524320    -0.28700
C670        C  0.30413027  0.64609939  0.34998285     0.44200
C671        C  0.32519838  0.72568513  0.36914779     0.05400
O672        O  0.36781105  0.71764372  0.33888162    -0.57200
H673        H  0.36298326  0.66586509  0.32039415     0.18300
O674        O  0.28359897  0.62257324  0.35425819    -0.63900
H675        H  0.28693794  0.67548607  0.37172595     0.16800
C676        C  0.32512526  0.75636258  0.36217060     0.29000
C677        C  0.33101041  0.78156355  0.37391313    -0.24800
C678        C  0.33633193  0.77680242  0.39278444    -0.24100
C679        C  0.33335153  0.74643649  0.40003717     0.40500
C680        C  0.32794161  0.72116250  0.38822183    -0.26600
O681        O  0.31999845  0.76194906  0.34383621    -0.58500
H682        H  0.33239318  0.80479986  0.36808993     0.16100
O683        O  0.33549689  0.74122222  0.41862426    -0.59900
H684        H  0.32712777  0.69781416  0.39392684     0.14600
H685        H  0.29379821  0.61073521  0.36433137     0.46400
H686        H  0.29692630  0.76168957  0.34236969     0.41800
H687        H  0.35689500  0.73292043  0.42061724     0.45300
H688        H  0.36278355  0.72645930  0.32661325     0.36700
C689        C  0.07262741  0.96791551  0.96605013    -0.27500
C690        C  0.04443976  0.97908803  0.97361531     0.02100
C691        C  0.03552959  0.01023370  0.97038974     0.30200
C692        C  0.05470018  0.02972326  0.96002890    -0.19300
C693        C  0.08262152  0.01860568  0.95217686    -0.28700
C694        C  0.09162565  0.98742699  0.95527604     0.44200
C695        C  0.02451893  0.95875243  0.98521557     0.05400
O696        O  0.00771503  0.02173594  0.97699875    -0.57200
H697        H  0.04692780  0.05343784  0.95754569     0.18300
O698        O  0.11878667  0.97581654  0.94788762    -0.63900
H699        H  0.08001930  0.94412560  0.96860920     0.16800
C700        C  0.01376898  0.92950915  0.97894849     0.29000
C701        C  0.99338763  0.91184286  0.98993443    -0.24800
C702        C  0.98329449  0.92315516  0.00710999    -0.24100
C703        C  0.99455488  0.95219561  0.01343823     0.40500
C704        C  0.01504226  0.96957101  0.00257777    -0.26600
O705        O  0.02175366  0.91879194  0.96176745    -0.58500
H706        H  0.98503103  0.88954096  0.98486976     0.16100
O707        O  0.98600696  0.96374416  0.03033970    -0.59900
H708        H  0.02352801  0.99176708  0.00774108     0.14600
H709        H  0.13538217  0.98141972  0.95684158     0.46400
H710        H  0.03779066  0.90245450  0.96390173     0.41800
H711        H  0.00152464  0.95509095  0.03910518     0.45300
H712        H  0.99195580  0.01641863  0.96747735     0.36700
C713        C  0.92278681  0.06539626  0.86397548    -0.27500
C714        C  0.95338941  0.06555723  0.85697886     0.02100
C715        C  0.95822259  0.06747282  0.83787850     0.30200
C716        C  0.93268342  0.07031097  0.82606828    -0.19300
C717        C  0.90198877  0.07140603  0.83300152    -0.28700
C718        C  0.89708849  0.06823561  0.85211900     0.44200
C719        C  0.98044129  0.06542181  0.86955587     0.05400
O720        O  0.98792365  0.06769729  0.83067297    -0.57200
H721        H  0.93701925  0.07255640  0.81142959     0.18300
O722        O  0.86749754  0.06908438  0.85943218    -0.63900
H723        H  0.91888799  0.06375778  0.87868296     0.16800
C724        C  0.98617011  0.09087119  0.88133602     0.29000
C725        C  0.01401726  0.09221974  0.89142198    -0.24800
C726        C  0.03640546  0.06829355  0.88997228    -0.24100
C727        C  0.02984936  0.04213576  0.87870512     0.40500
C728        C  0.00214800  0.04101054  0.86854628    -0.26600
O729        O  0.96567697  0.11549318  0.88211261    -0.58500
H730        H  0.01847486  0.11252693  0.89993929     0.16100
O731        O  0.05067435  0.01791543  0.87703939    -0.59900
H732        H  0.99786635  0.02129932  0.85951391     0.14600
H733        H  0.86360211  0.09137957  0.86236452     0.46400
H734        H  0.95242856  0.11145435  0.89306957     0.41800
H735        H  0.04493112  0.00307288  0.88695014     0.45300
H736        H  0.99439903  0.08994103  0.83075985     0.36700
C737        C  0.94109839  0.44593730  0.97313481    -0.27500
C738        C  0.95251441  0.47208650  0.96367707     0.02100
C739        C  0.94076324  0.47912893  0.94607376     0.30200
C740        C  0.91844532  0.45947161  0.93798222    -0.19300
C741        C  0.90788596  0.43267865  0.94721999    -0.28700
C742        C  0.91897643  0.42631246  0.96506837     0.44200
C743        C  0.97711966  0.49115071  0.97245976     0.05400
O744        O  0.95266144  0.50371695  0.93619712    -0.57200
H745        H  0.91063557  0.46432215  0.92408813     0.18300
O746        O  0.90896778  0.40052416  0.97457954    -0.63900
H747        H  0.94971617  0.44050841  0.98678882     0.16800
C748        C  0.97222556  0.52292175  0.97640090     0.29000
C749        C  0.99406441  0.53922972  0.98704239    -0.24800
C750        C  0.02069133  0.52413933  0.99407234    -0.24100
C751        C  0.02619830  0.49265842  0.98944226     0.40500
C752        C  0.00457640  0.47649739  0.97859030    -0.26600
O753        O  0.94490699  0.53739277  0.97133714    -0.58500
H754        H  0.98918450  0.56330573  0.99065289     0.16100
O755        O  0.05248815  0.47744372  0.99551385    -0.59900
H756        H  0.00870132  0.45207804  0.97547406     0.14600
H757        H  0.88929582  0.40710799  0.98071767     0.46400
H758        H  0.95104093  0.55315607  0.96201972     0.41800
H759        H  0.04548030  0.46484781  0.00619848     0.45300
H760        H  0.93506128  0.51862312  0.93477142     0.36700
C761        C  0.81329978  0.24853655  0.87962900    -0.27500
C762        C  0.81038847  0.25519542  0.86087448     0.02100
C763        C  0.81016602  0.28631748  0.85482873     0.30200
C764        C  0.81532488  0.31044373  0.86746151    -0.19300
C765        C  0.82143434  0.30356242  0.88600987    -0.28700
C766        C  0.81878021  0.27247527  0.89222474     0.44200
C767        C  0.81283320  0.22930459  0.84774914     0.05400
O768        O  0.80627694  0.29315513  0.83653132    -0.57200
H769        H  0.81687531  0.33423432  0.86249084     0.18300
O770        O  0.82343775  0.26497726  0.91037076    -0.63900
H771        H  0.81337778  0.22452540  0.88433302     0.16800
C772        C  0.84168934  0.22307415  0.83917629     0.29000
C773        C  0.84527595  0.19624343  0.82846672    -0.24800
C774        C  0.82049106  0.17503564  0.82655454    -0.24100
C775        C  0.79137343  0.18166106  0.83491446     0.40500
C776        C  0.78773430  0.20874732  0.84545088    -0.26600
O777        O  0.86681360  0.24255157  0.84175316    -0.58500
H778        H  0.86782267  0.19143873  0.82223172     0.16100
O779        O  0.76621874  0.16212911  0.83260458    -0.59900
H780        H  0.76554607  0.21339562  0.85215717     0.14600
H781        H  0.80308106  0.26904578  0.91649343     0.46400
H782        H  0.87713709  0.23497960  0.85312959     0.41800
H783        H  0.76535192  0.14936162  0.84397118     0.45300
H784        H  0.82774789  0.29555848  0.83153312     0.36700
C785        C  0.04524232  0.36746770  0.85236582    -0.27500
C786        C  0.01425784  0.37013638  0.84615811     0.02100
C787        C  0.00849125  0.37132098  0.82707333     0.30200
C788        C  0.03332468  0.36878709  0.81455239    -0.19300
C789        C  0.06427282  0.36522351  0.82072278    -0.28700
C790        C  0.07012510  0.36499455  0.83985672     0.44200
C791        C  0.98797641  0.37060559  0.85958718     0.05400
O792        O  0.97853884  0.37407065  0.82049482    -0.57200
H793        H  0.02825967  0.36904777  0.79994106     0.18300
O794        O  0.09991304  0.36126984  0.84653323    -0.63900
H795        H  0.05012610  0.36684950  0.86699274     0.16800
C796        C  0.98356845  0.34594538  0.87214159     0.29000
C797        C  0.95762555  0.34598240  0.88399637    -0.24800
C798        C  0.93574853  0.37051847  0.88368839    -0.24100
C799        C  0.94077564  0.39564555  0.87143837     0.40500
C800        C  0.96654858  0.39541948  0.85949349    -0.26600
O801        O  0.00361220  0.32091438  0.87225774    -0.58500
H802        H  0.95438340  0.32642526  0.89324441     0.16100
O803        O  0.92068657  0.42060674  0.87095663    -0.59900
H804        H  0.96984682  0.41476900  0.85009609     0.14600
H805        H  0.10296679  0.33836568  0.84749170     0.46400
H806        H  0.01724850  0.32415577  0.88313696     0.41800
H807        H  0.92874130  0.43539066  0.88035193     0.45300
H808        H  0.97042383  0.35240031  0.81982815     0.36700
C809        C  0.14458733  0.15050390  0.84213311    -0.27500
C810        C  0.13976307  0.18214173  0.84623817     0.02100
C811        C  0.13377503  0.19133765  0.86443877     0.30200
C812        C  0.13350442  0.16918370  0.87842605    -0.19300
C813        C  0.13869865  0.13739627  0.87462952    -0.28700
C814        C  0.14384688  0.12803606  0.85619801     0.44200
C815        C  0.14177322  0.20624578  0.83188314     0.05400
O816        O  0.12693399  0.22191847  0.86851636    -0.57200
H817        H  0.12857144  0.17706378  0.89230824     0.18300
O818        O  0.14777124  0.09716105  0.85172528    -0.63900
H819        H  0.14892672  0.14328354  0.82805804     0.16800
C820        C  0.16627933  0.22805028  0.83245833     0.29000
C821        C  0.16484549  0.25485516  0.82162413    -0.24800
C822        C  0.13904090  0.26042324  0.81013279    -0.24100
C823        C  0.11551555  0.23739636  0.80858891     0.40500
C824        C  0.11692183  0.21054930  0.81956805    -0.26600
O825        O  0.19136168  0.22355215  0.84395377    -0.58500
H826        H  0.18360996  0.27178426  0.82268193     0.16100
O827        O  0.09005206  0.24180741  0.79741264    -0.59900
H828        H  0.09782315  0.19391160  0.81917867     0.14600
H829        H  0.12649600  0.08943994  0.84869463     0.46400
H830        H  0.18893691  0.23916444  0.85395474     0.41800
H831        H  0.09577830  0.23187949  0.78553301     0.45300
H832        H  0.14515402  0.22982786  0.87556788     0.36700
C833        C  0.46576569  0.01556302  0.47633790    -0.27500
C834        C  0.46693680  0.98293334  0.47737913     0.02100
C835        C  0.49255950  0.96840934  0.48598147     0.30200
C836        C  0.51541004  0.98655574  0.49460737    -0.19300
C837        C  0.51316426  0.01924914  0.49479695    -0.28700
C838        C  0.48862095  0.03378947  0.48497290     0.44200
C839        C  0.44192131  0.96397186  0.46900629     0.05400
O840        O  0.49578543  0.93650366  0.48555962    -0.57200
H841        H  0.53443234  0.97486985  0.50164482     0.18300
O842        O  0.48621063  0.06569889  0.48409362    -0.63900
H843        H  0.44657595  0.02693753  0.46927180     0.16800
C844        C  0.42580098  0.94136767  0.47939683     0.29000
C845        C  0.40636079  0.91986017  0.47049034    -0.24800
C846        C  0.40227751  0.92118267  0.45137200    -0.24100
C847        C  0.41589599  0.94581986  0.44131477     0.40500
C848        C  0.43581405  0.96687428  0.45015141    -0.26600
O849        O  0.42895619  0.94036215  0.49820718    -0.58500
H850        H  0.39522329  0.90157386  0.47844515     0.16100
O851        O  0.41231538  0.94778604  0.42259094    -0.59900
H852        H  0.44782919  0.98444894  0.44208201     0.14600
H853        H  0.47125298  0.07152285  0.49397025     0.46400
H854        H  0.43786761  0.91953996  0.50105990     0.41800
H855        H  0.39449857  0.96228392  0.42073619     0.45300
H856        H  0.49447001  0.92958180  0.49856131     0.36700
C857        C  0.29707678  0.24872649  0.72445482    -0.27500
C858        C  0.26623363  0.24296024  0.73009654     0.02100
C859        C  0.25358289  0.21281271  0.72790406     0.30200
C860        C  0.27097401  0.18943060  0.71919608    -0.19300
C861        C  0.30137801  0.19538566  0.71282872    -0.28700
C862        C  0.31465729  0.22522341  0.71582231     0.44200
C863        C  0.24643731  0.26856359  0.73735121     0.05400
O864        O  0.22385635  0.20618694  0.73387561    -0.57200
H865        H  0.26042548  0.16667966  0.71714602     0.18300
O866        O  0.34416377  0.23217255  0.70958407    -0.63900
H867        H  0.30707986  0.27181972  0.72606782     0.16800
C868        C  0.25355623  0.28379537  0.75398705     0.29000
C869        C  0.23174612  0.30433463  0.76188389    -0.24800
C870        C  0.20269670  0.30998058  0.75334844    -0.24100
C871        C  0.19682326  0.29648223  0.73596150     0.40500
C872        C  0.21866856  0.27609841  0.72810112    -0.26600
O873        O  0.28050252  0.27679074  0.76335886    -0.58500
H874        H  0.23681669  0.31428299  0.77527530     0.16100
O875        O  0.16949367  0.30244595  0.72671133    -0.59900
H876        H  0.21330516  0.26506063  0.71504175     0.14600
H877        H  0.34119287  0.23993125  0.69684557     0.46400
H878        H  0.29542840  0.29363315  0.76009599     0.41800
H879        H  0.15620133  0.28375849  0.72870757     0.45300
H880        H  0.22612991  0.20110918  0.74712364     0.36700
C881        C  0.45508824  0.03751402  0.58695887    -0.27500
C882        C  0.43914310  0.06537464  0.59056546     0.02100
C883        C  0.44510656  0.09188552  0.57974387     0.30200
C884        C  0.46846054  0.09092007  0.56628655    -0.19300
C885        C  0.48619925  0.06368376  0.56350971    -0.28700
C886        C  0.47844968  0.03643518  0.57347748     0.44200
C887        C  0.42110471  0.06852137  0.60768618     0.05400
O888        O  0.43018749  0.11959481  0.58335238    -0.57200
H889        H  0.47384205  0.11207828  0.55876418     0.18300
O890        O  0.49396903  0.00884220  0.57046640    -0.63900
H891        H  0.45054142  0.01702145  0.59527566     0.16800
C892        C  0.38827024  0.06945378  0.60774774     0.29000
C893        C  0.37233209  0.07767360  0.62391470    -0.24800
C894        C  0.38898587  0.08536395  0.64001800    -0.24100
C895        C  0.42191618  0.08248920  0.64005352     0.40500
C896        C  0.43761524  0.07388771  0.62398951    -0.26600
O897        O  0.37174596  0.06404841  0.59188793    -0.58500
H898        H  0.34708187  0.07986913  0.62351423     0.16100
O899        O  0.43911171  0.08893455  0.65554878    -0.59900
H900        H  0.46297787  0.07303028  0.62400456     0.14600
H901        H  0.50959737  0.00735680  0.58051664     0.46400
H902        H  0.36837857  0.04114052  0.59156170     0.41800
H903        H  0.44784558  0.11013716  0.65356276     0.45300
H904        H  0.41115713  0.11927748  0.57555152     0.36700
C905        C  0.56213038  0.44352954  0.46106819    -0.27500
C906        C  0.53983271  0.45720014  0.47276247     0.02100
C907        C  0.53984691  0.48967115  0.47546392     0.30200
C908        C  0.56139848  0.50813455  0.46619558    -0.19300
C909        C  0.58277558  0.49489399  0.45369666    -0.28700
C910        C  0.58358236  0.46216463  0.45151384     0.44200
C911        C  0.51574416  0.43799146  0.48173150     0.05400
O912        O  0.51795908  0.50377355  0.48654617    -0.57200
H913        H  0.56018777  0.53318739  0.46818168     0.18300
O914        O  0.60409583  0.44826411  0.43950867    -0.63900
H915        H  0.56249774  0.41844940  0.45909011     0.16800
C916        C  0.49491011  0.41967229  0.47127963     0.29000
C917        C  0.47042429  0.40395526  0.48004882    -0.24800
C918        C  0.46629810  0.40685905  0.49909054    -0.24100
C919        C  0.48742037  0.42470184  0.50955953     0.40500
C920        C  0.51203226  0.44002696  0.50086411    -0.26600
O921        O  0.49740436  0.41828533  0.45246794    -0.58500
H922        H  0.45446063  0.38980787  0.47199012     0.16100
O923        O  0.48459980  0.42667782  0.52835057    -0.59900
H924        H  0.52815835  0.45378952  0.50904577     0.14600
H925        H  0.62290324  0.44343738  0.44697092     0.46400
H926        H  0.50748412  0.39790543  0.44981661     0.41800
H927        H  0.49670711  0.40874016  0.53322267     0.45300
H928        H  0.49942578  0.50703746  0.47856122     0.36700
C929        C  0.34230799  0.29338794  0.59550965    -0.27500
C930        C  0.34524976  0.26107125  0.59321870     0.02100
C931        C  0.35378034  0.24872976  0.57601926     0.30200
C932        C  0.36146487  0.26889615  0.56166443    -0.19300
C933        C  0.36112141  0.30142613  0.56433962    -0.28700
C934        C  0.35014536  0.31365187  0.58120204     0.44200
C935        C  0.34318618  0.24070165  0.60937237     0.05400
O936        O  0.35655097  0.21708968  0.57347130    -0.57200
H937        H  0.36947290  0.25897241  0.54876105     0.18300
O938        O  0.34868893  0.34524075  0.58425152    -0.63900
H939        H  0.33548637  0.30293249  0.60874614     0.16800
C940        C  0.36609332  0.24252929  0.62320337     0.29000
C941        C  0.36494658  0.22216005  0.63814022    -0.24800
C942        C  0.34121137  0.19959249  0.63943939    -0.24100
C943        C  0.31809668  0.19803752  0.62552640     0.40500
C944        C  0.31937405  0.21844532  0.61057546    -0.26600
O945        O  0.39011139  0.26370291  0.62198965    -0.58500
H946        H  0.38303578  0.22370468  0.64854398     0.16100
O947        O  0.29489400  0.17591908  0.62595697    -0.59900
H948        H  0.30190749  0.21674810  0.59981001     0.14600
H949        H  0.36869062  0.35065997  0.59040290     0.46400
H950        H  0.40642958  0.25323241  0.61446717     0.41800
H951        H  0.27674184  0.18643570  0.63180947     0.45300
H952        H  0.37846126  0.21204197  0.57685475     0.36700
C953        C  0.72273012  0.22007291  0.73051127    -0.27500
C954        C  0.70744062  0.19255655  0.73595953     0.02100
C955        C  0.67513406  0.18944859  0.73267363     0.30200
C956        C  0.65891038  0.21317078  0.72348652    -0.19300
C957        C  0.67459131  0.24001561  0.71719456    -0.28700
C958        C  0.70667434  0.24356730  0.72112353     0.44200
C959        C  0.72571659  0.16753826  0.74504965     0.05400
O960        O  0.65941255  0.16294040  0.73784248    -0.57200
H961        H  0.63427564  0.20985641  0.72054587     0.18300
O962        O  0.72276263  0.26962767  0.71558286    -0.63900
H963        H  0.74737983  0.22328595  0.73343854     0.16800
C964        C  0.75385525  0.15674103  0.73718926     0.29000
C965        C  0.77340752  0.13694259  0.74721287    -0.24800
C966        C  0.76532183  0.12749143  0.76508358    -0.24100
C967        C  0.73587505  0.13593053  0.77228003     0.40500
C968        C  0.71641612  0.15609561  0.76232309    -0.26600
O969        O  0.76248876  0.16567408  0.71976299    -0.58500
H970        H  0.79566991  0.13009450  0.74128430     0.16100
O971        O  0.72714542  0.12705367  0.78966871    -0.59900
H972        H  0.69482040  0.16413660  0.76855532     0.14600
H973        H  0.71941618  0.28520885  0.72550807     0.46400
H974        H  0.78059668  0.17990640  0.72141213     0.41800
H975        H  0.71488860  0.10760451  0.78792991     0.45300
H976        H  0.66235025  0.14804939  0.72751389     0.36700
C977        C  0.52174545  0.32797508  0.58151980    -0.27500
C978        C  0.52588636  0.35422159  0.59280482     0.02100
C979        C  0.50801048  0.38117312  0.58965178     0.30200
C980        C  0.48532479  0.38121272  0.57578370    -0.19300
C981        C  0.47993220  0.35440529  0.56499656    -0.28700
C982        C  0.49902346  0.32790606  0.56764745     0.44200
C983        C  0.54558602  0.35147959  0.60935845     0.05400
O984        O  0.51233578  0.40739146  0.60022989    -0.57200
H985        H  0.47142769  0.40209161  0.57377086     0.18300
O986        O  0.49437152  0.30114188  0.55762821    -0.63900
H987        H  0.53519151  0.30695636  0.58404956     0.16800
C988        C  0.53138014  0.34706668  0.62659909     0.29000
C989        C  0.54969688  0.34035620  0.64197969    -0.24800
C990        C  0.58237121  0.33749192  0.64046852    -0.24100
C991        C  0.59672494  0.34334738  0.62326170     0.40500
C992        C  0.57824562  0.35020257  0.60783834    -0.26600
O993        O  0.49941280  0.34783007  0.62836734    -0.58500
H994        H  0.53804810  0.33598191  0.65497589     0.16100
O995        O  0.62855862  0.34118764  0.62114832    -0.59900
H996        H  0.58932096  0.35349845  0.59455756     0.14600
H997        H  0.50965812  0.30227266  0.54736986     0.46400
H998        H  0.49234664  0.32622026  0.62571520     0.41800
H999        H  0.63242697  0.31955846  0.61679508     0.45300
H1000       H  0.49576783  0.40653889  0.60978476     0.36700
C1001       C  0.59645668  0.18094394  0.63015023    -0.27500
C1002       C  0.62303311  0.17354083  0.61971842     0.02100
C1003       C  0.65151998  0.18853191  0.62352752     0.30200
C1004       C  0.65291696  0.21154644  0.63722568    -0.19300
C1005       C  0.62601228  0.22005547  0.64727360    -0.28700
C1006       C  0.59767157  0.20410774  0.64375800     0.44200
C1007       C  0.61958386  0.15314874  0.60346355     0.05400
O1008       O  0.67780330  0.18166568  0.61345364    -0.57200
H1009       H  0.67498563  0.22329873  0.63965524     0.18300
O1010       O  0.57069408  0.21175422  0.65296608    -0.63900
H1011       H  0.57430434  0.16972169  0.62713049     0.16800
C1012       C  0.61566445  0.12070766  0.60522971     0.29000
C1013       C  0.60814855  0.10264664  0.58973284    -0.24800
C1014       C  0.60374517  0.11679589  0.57246423    -0.24100
C1015       C  0.60930729  0.14915212  0.57065146     0.40500
C1016       C  0.61716003  0.16699530  0.58608416    -0.26600
O1017       O  0.61863163  0.10660696  0.62207310    -0.58500
H1018       H  0.60417184  0.07783265  0.59144123     0.16100
O1019       O  0.60597136  0.16386535  0.55401051    -0.59900
H1020       H  0.62013444  0.19200570  0.58462191     0.14600
H1021       H  0.56041912  0.22786028  0.64525133     0.46400
H1022       H  0.59713568  0.10596676  0.62722120     0.41800
H1023       H  0.62657699  0.16166408  0.54784767     0.45300
H1024       H  0.68790310  0.16409207  0.62004903     0.36700
C1025       C  0.67755504  0.09988109  0.48109757    -0.27500
C1026       C  0.69709440  0.07368566  0.48036848     0.02100
C1027       C  0.68863059  0.04633670  0.48978232     0.30200
C1028       C  0.66089413  0.04554521  0.49997194    -0.19300
C1029       C  0.64104003  0.07171495  0.50071275    -0.28700
C1030       C  0.64952006  0.09899883  0.49101817     0.44200
C1031       C  0.72651812  0.07522450  0.46989905     0.05400
O1032       O  0.70796987  0.02074976  0.48967333    -0.57200
H1033       H  0.65497695  0.02435227  0.50731987     0.18300
O1034       O  0.63120007  0.12527627  0.49161638    -0.63900
H1035       H  0.68404838  0.12105042  0.47388609     0.16800
C1036       C  0.73058500  0.05728075  0.45389443     0.29000
C1037       C  0.75909068  0.05810080  0.44452777    -0.24800
C1038       C  0.78398233  0.07669371  0.45092958    -0.24100
C1039       C  0.77953142  0.09516428  0.46684969     0.40500
C1040       C  0.75080480  0.09450686  0.47609616    -0.26600
O1041       O  0.70693417  0.03858369  0.44743672    -0.58500
H1042       H  0.76180096  0.04367766  0.43236382     0.16100
O1043       O  0.80303585  0.11373038  0.47360374    -0.59900
H1044       H  0.74769947  0.10851748  0.48840210     0.14600
H1045       H  0.61801369  0.12420071  0.48040236     0.46400
H1046       H  0.69422462  0.05224299  0.43935558     0.41800
H1047       H  0.81364556  0.10089693  0.48308834     0.45300
H1048       H  0.69841048  0.00596327  0.48078740     0.36700
C1049       C  0.15740904  0.93586522  0.27572437    -0.27500
C1050       C  0.13267401  0.92871289  0.26380153     0.02100
C1051       C  0.10881423  0.95080814  0.26097543     0.30200
C1052       C  0.11065969  0.98017244  0.26942344    -0.19300
C1053       C  0.13610659  0.98790189  0.28084158    -0.28700
C1054       C  0.15918192  0.96502691  0.28432067     0.44200
C1055       C  0.13386446  0.89957410  0.25289852     0.05400
O1056       O  0.08411796  0.94426070  0.24955047    -0.57200
H1057       H  0.09229526  0.99704152  0.26682894     0.18300
O1058       O  0.18427337  0.97122269  0.29550747    -0.63900
H1059       H  0.17584398  0.91894519  0.27804811     0.16800
C1060       C  0.15837880  0.89483821  0.24029981     0.29000
C1061       C  0.15882797  0.86813185  0.22927069    -0.24800
C1062       C  0.13504236  0.84554697  0.23054172    -0.24100
C1063       C  0.11079069  0.84997722  0.24354753     0.40500
C1064       C  0.11034232  0.87691218  0.25458995    -0.26600
O1065       O  0.18113178  0.91710191  0.23796505    -0.58500
H1066       H  0.17760513  0.86556647  0.21935180     0.16100
O1067       O  0.08753115  0.82820246  0.24566096    -0.59900
H1068       H  0.09149925  0.88024163  0.26439337     0.14600
H1069       H  0.17814880  0.96325428  0.30780717     0.46400
H1070       H  0.19941038  0.90943615  0.24504687     0.41800
H1071       H  0.06982892  0.83595485  0.23812059     0.45300
H1072       H  0.09098570  0.95106014  0.23714367     0.36700
C1073       C  0.00369668  0.06664156  0.39371576    -0.27500
C1074       C  0.00680352  0.03850103  0.38391931     0.02100
C1075       C  0.98345364  0.01554261  0.38545779     0.30200
C1076       C  0.95608661  0.02214199  0.39527218    -0.19300
C1077       C  0.95180329  0.05134474  0.40375843    -0.28700
C1078       C  0.97652463  0.07303799  0.40377474     0.44200
C1079       C  0.03226539  0.03554136  0.37028305     0.05400
O1080       O  0.98733242  0.98675659  0.37738254    -0.57200
H1081       H  0.93783063  0.00459571  0.39586321     0.18300
O1082       O  0.97348421  0.10143256  0.41234393    -0.63900
H1083       H  0.02163571  0.08445047  0.39271344     0.16800
C1084       C  0.02506226  0.03217859  0.35147004     0.29000
C1085       C  0.04850705  0.03590149  0.33828453    -0.24800
C1086       C  0.07929404  0.04296570  0.34350982    -0.24100
C1087       C  0.08688278  0.04458642  0.36237147     0.40500
C1088       C  0.06336936  0.04085537  0.37561495    -0.26600
O1089       O  0.99465705  0.02853561  0.34576388    -0.58500
H1090       H  0.04220234  0.03470495  0.32385141     0.16100
O1091       O  0.11664437  0.05184534  0.36800343    -0.59900
H1092       H  0.06910837  0.04370504  0.39004806     0.14600
H1093       H  0.98295624  0.09855445  0.42468528     0.46400
H1094       H  0.99365391  0.00736771  0.34022554     0.41800
H1095       H  0.11709931  0.07496417  0.36887530     0.45300
H1096       H  0.96969164  0.98427904  0.36862972     0.36700
C1097       C  0.22377472  0.33645089  0.46991595    -0.27500
C1098       C  0.24871654  0.35512827  0.46396831     0.02100
C1099       C  0.24487893  0.37458924  0.44862709     0.30200
C1100       C  0.21619683  0.37542982  0.43944870    -0.19300
C1101       C  0.19072879  0.35733749  0.44553396    -0.28700
C1102       C  0.19479574  0.33760404  0.46092834     0.44200
C1103       C  0.27821193  0.35556046  0.47442240     0.05400
O1104       O  0.26924410  0.39256400  0.44238329    -0.57200
H1105       H  0.21386843  0.39066763  0.42764159     0.18300
O1106       O  0.17079264  0.31928648  0.46728942    -0.63900
H1107       H  0.22660022  0.32148064  0.48181245     0.16800
C1108       C  0.28573321  0.38137919  0.48549825     0.29000
C1109       C  0.31368795  0.38168882  0.49541990    -0.24800
C1110       C  0.33455376  0.35631538  0.49457349    -0.24100
C1111       C  0.32709728  0.33058984  0.48316466     0.40500
C1112       C  0.29891848  0.33028334  0.47331825    -0.26600
O1113       O  0.26569973  0.40631960  0.48683686    -0.58500
H1114       H  0.31875489  0.40173379  0.50403368     0.16100
O1115       O  0.34658544  0.30522441  0.48194847    -0.59900
H1116       H  0.29322064  0.31031671  0.46477036     0.14600
H1117       H  0.16057514  0.33180125  0.47710164     0.46400
H1118       H  0.25096441  0.40082732  0.49687933     0.41800
H1119       H  0.36007356  0.30935196  0.47110259     0.45300
H1120       H  0.26545993  0.41368803  0.44754304     0.36700
C1121       C  0.16525600  0.19305376  0.35140483    -0.27500
C1122       C  0.13726922  0.20981972  0.35272488     0.02100
C1123       C  0.11071973  0.19972919  0.34301327     0.30200
C1124       C  0.11225152  0.17270484  0.33224145    -0.19300
C1125       C  0.13996195  0.15509437  0.33135656    -0.28700
C1126       C  0.16672588  0.16568402  0.34092217     0.44200
C1127       C  0.13545435  0.23706183  0.36496524     0.05400
O1128       O  0.08321801  0.21618700  0.34399838    -0.57200
H1129       H  0.09142821  0.16501805  0.32503940     0.18300
O1130       O  0.19453461  0.14975432  0.33991996    -0.63900
H1131       H  0.18579877  0.20085469  0.35884837     0.16800
C1132       C  0.12168824  0.23430325  0.38242290     0.29000
C1133       C  0.11822571  0.26069520  0.39351510    -0.24800
C1134       C  0.12853692  0.29015073  0.38745505    -0.24100
C1135       C  0.14349154  0.29252017  0.37015398     0.40500
C1136       C  0.14675510  0.26600863  0.35902851    -0.26600
O1137       O  0.11082649  0.20601176  0.38854340    -0.58500
H1138       H  0.10691816  0.25809316  0.40677882     0.16100
O1139       O  0.15401327  0.32068456  0.36367133    -0.59900
H1140       H  0.15756576  0.26813364  0.34558812     0.14600
H1141       H  0.19548876  0.13714738  0.35134839     0.46400
H1142       H  0.12914534  0.19579112  0.39435301     0.41800
H1143       H  0.17630945  0.32176211  0.36740726     0.45300
H1144       H  0.07126483  0.20643974  0.35418976     0.36700
C1145       C  0.86706937  0.44870469  0.23751489    -0.27500
C1146       C  0.84098047  0.46858050  0.23831619     0.02100
C1147       C  0.81492427  0.45979052  0.24897098     0.30200
C1148       C  0.81561131  0.43205697  0.25909272    -0.19300
C1149       C  0.84206618  0.41252049  0.25879306    -0.28700
C1150       C  0.86772187  0.42079776  0.24754634     0.44200
C1151       C  0.84147367  0.49889112  0.22850049     0.05400
O1152       O  0.78895067  0.47855375  0.24995959    -0.57200
H1153       H  0.79546559  0.42610563  0.26744872     0.18300
O1154       O  0.89410976  0.40259860  0.24686321    -0.63900
H1155       H  0.88714531  0.45499118  0.22918562     0.16800
C1156       C  0.86499613  0.52108258  0.23208197     0.29000
C1157       C  0.86467437  0.54990660  0.22301628    -0.24800
C1158       C  0.84115806  0.55714110  0.21018396    -0.24100
C1159       C  0.81751247  0.53480055  0.20667663     0.40500
C1160       C  0.81790728  0.50599563  0.21576193    -0.26600
O1161       O  0.88770450  0.51525821  0.24496952    -0.58500
H1162       H  0.88300065  0.56661080  0.22606261     0.16100
O1163       O  0.79427878  0.54044720  0.19410024    -0.59900
H1164       H  0.79977472  0.48903496  0.21278005     0.14600
H1165       H  0.89125282  0.38893761  0.23595433     0.46400
H1166       H  0.90676168  0.50997618  0.23780593     0.41800
H1167       H  0.77654916  0.54890249  0.20139064     0.45300
H1168       H  0.79297156  0.49294688  0.26040215     0.36700
C1169       C  0.91750123  0.38580634  0.36047705    -0.27500
C1170       C  0.94924743  0.38676863  0.35555886     0.02100
C1171       C  0.95768380  0.38540912  0.33685544     0.30200
C1172       C  0.93467739  0.38132204  0.32345286    -0.19300
C1173       C  0.90299947  0.37849774  0.32833762    -0.28700
C1174       C  0.89433115  0.38204622  0.34698402     0.44200
C1175       C  0.97383223  0.38577011  0.36983624     0.05400
O1176       O  0.98859784  0.38495087  0.33170524    -0.57200
H1177       H  0.94192033  0.37856819  0.30924056     0.18300
O1178       O  0.86371260  0.37906949  0.35237126    -0.63900
H1179       H  0.91079509  0.38676668  0.37485617     0.16800
C1180       C  0.99727350  0.40876174  0.37048254     0.29000
C1181       C  0.02381926  0.40412146  0.38131687    -0.24800
C1182       C  0.02720164  0.37693967  0.39194845    -0.24100
C1183       C  0.00257562  0.35506204  0.39242123     0.40500
C1184       C  0.97617700  0.35949408  0.38128851    -0.26600
O1185       O  0.99506970  0.43520901  0.35993955    -0.58500
H1186       H  0.04212549  0.42163511  0.38113034     0.16100
O1187       O  0.00508419  0.32820207  0.40256426    -0.59900
H1188       H  0.95828040  0.34157507  0.38085932     0.14600
H1189       H  0.85548366  0.40071034  0.35282800     0.46400
H1190       H  0.98169053  0.44969093  0.36714192     0.41800
H1191       H  0.99399058  0.33270558  0.41426903     0.45300
H1192       H  0.99256657  0.40562813  0.32603448     0.36700
C1193       C  0.84568736  0.15793856  0.35954192    -0.27500
C1194       C  0.85181452  0.18848850  0.36548641     0.02100
C1195       C  0.85883557  0.19402539  0.38411141     0.30200
C1196       C  0.85976138  0.16915664  0.39650576    -0.19300
C1197       C  0.85393087  0.13839255  0.39061812    -0.28700
C1198       C  0.84681261  0.13294197  0.37190602     0.44200
C1199       C  0.85034288  0.21456820  0.35225209     0.05400
O1200       O  0.86519171  0.22364713  0.39028908    -0.57200
H1201       H  0.86545819  0.17401103  0.41075614     0.18300
O1202       O  0.84119787  0.10334639  0.36546894    -0.63900
H1203       H  0.83997118  0.15346551  0.34524955     0.16800
C1204       C  0.86986881  0.21533424  0.33666335     0.29000
C1205       C  0.86823752  0.24055187  0.32447066    -0.24800
C1206       C  0.84697771  0.26510199  0.32747462    -0.24100
C1207       C  0.82728936  0.26406476  0.34311676     0.40500
C1208       C  0.82922618  0.23901988  0.35535180    -0.26600
O1209       O  0.89149281  0.19218748  0.33367244    -0.58500
H1210       H  0.88372143  0.24085221  0.31265424     0.16100
O1211       O  0.80659097  0.28771425  0.34689850    -0.59900
H1212       H  0.81403517  0.23860599  0.36730681     0.14600
H1213       H  0.86183304  0.09552128  0.36122006     0.46400
H1214       H  0.88225290  0.17869473  0.32398954     0.41800
H1215       H  0.78625969  0.28053499  0.34185002     0.45300
H1216       H  0.88799014  0.22650579  0.38833616     0.36700
C1217       C  0.25802321  0.06897096  0.94391651    -0.27500
C1218       C  0.25884641  0.08091100  0.96189914     0.02100
C1219       C  0.23171536  0.09485870  0.96927407     0.30200
C1220       C  0.20419524  0.09613971  0.95884033    -0.19300
C1221       C  0.20296075  0.08312441  0.94108090    -0.28700
C1222       C  0.23039128  0.06977937  0.93356781     0.44200
C1223       C  0.28775774  0.07787223  0.97306601     0.05400
O1224       O  0.23156699  0.10645416  0.98688799    -0.57200
H1225       H  0.18343678  0.10634491  0.96496053     0.18300
O1226       O  0.23064366  0.05788515  0.91602168    -0.63900
H1227       H  0.27885532  0.05870292  0.93791909     0.16800
C1228       C  0.30121436  0.04837056  0.97637630     0.29000
C1229       C  0.32745697  0.04574241  0.98780840    -0.24800
C1230       C  0.34111020  0.07231679  0.99579262    -0.24100
C1231       C  0.32795626  0.10191193  0.99221631     0.40500
C1232       C  0.30151694  0.10449334  0.98093203    -0.26600
O1233       O  0.28790240  0.02181860  0.96925830    -0.58500
H1234       H  0.33708204  0.02278876  0.99049946     0.16100
O1235       O  0.34008291  0.12836316  0.00014944    -0.59900
H1236       H  0.29149827  0.12735055  0.97846381     0.14600
H1237       H  0.22846734  0.03496773  0.91751815     0.46400
H1238       H  0.30153479  0.01567731  0.95880061     0.41800
H1239       H  0.32939681  0.13020720  0.01223259     0.45300
H1240       H  0.22606955  0.08843738  0.99482165     0.36700
C1241       C  0.61656724  0.95047586  0.25596579    -0.27500
C1242       C  0.64086759  0.97236284  0.25698877     0.02100
C1243       C  0.66558992  0.96748395  0.26947448     0.30200
C1244       C  0.66640451  0.94018833  0.28011965    -0.19300
C1245       C  0.64291286  0.91744339  0.27834631    -0.28700
C1246       C  0.61733692  0.92330537  0.26653492     0.44200
C1247       C  0.64026386  0.99965834  0.24452963     0.05400
O1248       O  0.68855448  0.98961244  0.27162100    -0.57200
H1249       H  0.68596915  0.93641591  0.28932930     0.18300
O1250       O  0.59318108  0.90238004  0.26489998    -0.63900
H1251       H  0.59722848  0.95411547  0.24656459     0.16800
C1252       C  0.66465831  0.00493183  0.23188838     0.29000
C1253       C  0.66267965  0.02978563  0.21946470    -0.24800
C1254       C  0.63656953  0.04974672  0.21937584    -0.24100
C1255       C  0.61192018  0.04409482  0.23190208     0.40500
C1256       C  0.61397701  0.01928692  0.24435384    -0.26600
O1257       O  0.68960145  0.98479557  0.23086083    -0.58500
H1258       H  0.68169918  0.03330445  0.20981453     0.16100
O1259       O  0.58556323  0.06237983  0.23202283    -0.59900
H1260       H  0.59481679  0.01516117  0.25382989     0.14600
H1261       H  0.57856467  0.90762846  0.27506090     0.46400
H1262       H  0.70814935  0.99721502  0.23458887     0.41800
H1263       H  0.57098758  0.05220571  0.22324445     0.45300
H1264       H  0.70826297  0.97948851  0.26752801     0.36700
C1265       C  0.73898944  0.20722507  0.21456571    -0.27500
C1266       C  0.73215262  0.21566198  0.23283689     0.02100
C1267       C  0.70636613  0.20151803  0.24170328     0.30200
C1268       C  0.68723500  0.18060353  0.23207061    -0.19300
C1269       C  0.69407907  0.17242172  0.21380853    -0.28700
C1270       C  0.72054231  0.18548543  0.20517277     0.44200
C1271       C  0.75166910  0.23956578  0.24232261     0.05400
O1272       O  0.69961544  0.20791535  0.25978182    -0.57200
H1273       H  0.66707814  0.17058967  0.23893748     0.18300
O1274       O  0.72796446  0.17808658  0.18730726    -0.63900
H1275       H  0.75827981  0.21809034  0.20732030     0.16800
C1276       C  0.78461688  0.23863028  0.24135097     0.29000
C1277       C  0.80243710  0.26144021  0.25023987    -0.24800
C1278       C  0.78815875  0.28511001  0.26073838    -0.24100
C1279       C  0.75520899  0.28618929  0.26166229     0.40500
C1280       C  0.73731085  0.26380323  0.25233019    -0.26600
O1281       O  0.79979173  0.21503656  0.23217677    -0.58500
H1282       H  0.82770516  0.25980248  0.24941804     0.16100
O1283       O  0.74018058  0.30851815  0.27193927    -0.59900
H1284       H  0.71203632  0.26544188  0.25295476     0.14600
H1285       H  0.71597457  0.19303458  0.17964412     0.46400
H1286       H  0.80205707  0.19801369  0.24131801     0.41800
H1287       H  0.73592104  0.32584988  0.26326214     0.45300
H1288       H  0.71303321  0.19354740  0.26699617     0.36700
C1289       C  0.52275394  0.07758320  0.08772080    -0.27500
C1290       C  0.51684652  0.05766945  0.10261785     0.02100
C1291       C  0.49147095  0.03686774  0.10181767     0.30200
C1292       C  0.47193071  0.03667148  0.08636108    -0.19300
C1293       C  0.47712370  0.05740609  0.07165086    -0.28700
C1294       C  0.50301571  0.07779832  0.07239164     0.44200
C1295       C  0.53642645  0.06050735  0.11925449     0.05400
O1296       O  0.48524740  0.01713067  0.11620984    -0.57200
H1297       H  0.45208257  0.02092842  0.08617226     0.18300
O1298       O  0.50935246  0.09796464  0.05821711    -0.63900
H1299       H  0.54224684  0.09375898  0.08824238     0.16800
C1300       C  0.56880885  0.05513364  0.11833687     0.29000
C1301       C  0.58796284  0.06361911  0.13309379    -0.24800
C1302       C  0.57529272  0.07782842  0.14891137    -0.24100
C1303       C  0.54246376  0.08124187  0.15026365     0.40500
C1304       C  0.52330439  0.07238399  0.13551039    -0.26600
O1305       O  0.58211788  0.04305804  0.10268090    -0.58500
H1306       H  0.61301438  0.06049735  0.13170057     0.16100
O1307       O  0.52889686  0.09405155  0.16564537    -0.59900
H1308       H  0.49831453  0.07650221  0.13635747     0.14600
H1309       H  0.50063572  0.11836648  0.06218904     0.46400
H1310       H  0.58116550  0.02007506  0.10424812     0.41800
H1311       H  0.52496417  0.11623110  0.16247357     0.45300
H1312       H  0.49740612  0.99792328  0.11352889     0.36700
C1313       C  0.36232396  0.37743488  0.24646847    -0.27500
C1314       C  0.33991991  0.40068441  0.24322335     0.02100
C1315       C  0.31889250  0.39737761  0.22854034     0.30200
C1316       C  0.32052261  0.37113626  0.21716396    -0.19300
C1317       C  0.34311077  0.34773733  0.22012696    -0.28700
C1318       C  0.36422237  0.35115413  0.23495853     0.44200
C1319       C  0.33932743  0.42914925  0.25462378     0.05400
O1320       O  0.29690092  0.41994761  0.22506305    -0.57200
H1321       H  0.30406521  0.36928948  0.20587956     0.18300
O1322       O  0.38650615  0.32891848  0.23848821    -0.63900
H1323       H  0.37867716  0.37994614  0.25776782     0.16800
C1324       C  0.32551851  0.42920187  0.27217124     0.29000
C1325       C  0.32409327  0.45696697  0.28235164    -0.24800
C1326       C  0.33655283  0.48491370  0.27525576    -0.24100
C1327       C  0.35017780  0.48464668  0.25752815     0.40500
C1328       C  0.35152324  0.45688432  0.24741927    -0.26600
O1329       O  0.31246013  0.40249187  0.27919230    -0.58500
H1330       H  0.31323718  0.45656943  0.29583281     0.16100
O1331       O  0.36202708  0.51136903  0.24982148    -0.59900
H1332       H  0.36188812  0.45702714  0.23379645     0.14600
H1333       H  0.40567392  0.33639993  0.23217038     0.46400
H1334       H  0.32943609  0.39238768  0.28632493     0.41800
H1335       H  0.34420613  0.52092896  0.24314397     0.45300
H1336       H  0.27855831  0.41418641  0.23271747     0.36700
C1337       C  0.25035376  0.12832026  0.25893094    -0.27500
C1338       C  0.23756848  0.15296198  0.24867170     0.02100
C1339       C  0.20491203  0.15700897  0.24826027     0.30200
C1340       C  0.18554122  0.13690771  0.25814215    -0.19300
C1341       C  0.19815070  0.11275042  0.26889610    -0.28700
C1342       C  0.23088853  0.10820488  0.26898291     0.44200
C1343       C  0.25797028  0.17454707  0.23826765     0.05400
O1344       O  0.19170147  0.18117200  0.23861812    -0.57200
H1345       H  0.16054610  0.14116290  0.25795432     0.18300
O1346       O  0.24416522  0.08459810  0.27903767    -0.63900
H1347       H  0.27544811  0.12470643  0.25914986     0.16800
C1348       C  0.28091555  0.19279671  0.24713026     0.29000
C1349       C  0.29789400  0.21501562  0.23706504    -0.24800
C1350       C  0.29186363  0.21951336  0.21826753    -0.24100
C1351       C  0.26941799  0.20078513  0.20938654     0.40500
C1352       C  0.25287218  0.17837038  0.21934493    -0.26600
O1353       O  0.28577248  0.19014578  0.26572532    -0.58500
H1354       H  0.31540399  0.22907061  0.24398530     0.16100
O1355       O  0.26460479  0.20317518  0.19076979    -0.59900
H1356       H  0.23570478  0.16407037  0.21229903     0.14600
H1357       H  0.24338293  0.06598255  0.27090941     0.46400
H1358       H  0.30487666  0.17717323  0.26698024     0.41800
H1359       H  0.24601616  0.21684633  0.18942903     0.45300
H1360       H  0.19293033  0.19950107  0.24695664     0.36700
C1361       C  0.31753277  0.17523558  0.12383251    -0.27500
C1362       C  0.34404879  0.15633052  0.12168940     0.02100
C1363       C  0.36894826  0.15927048  0.13430762     0.30200
C1364       C  0.36755618  0.18180958  0.14829885    -0.19300
C1365       C  0.34167890  0.20184715  0.14987837    -0.28700
C1366       C  0.31620107  0.19789445  0.13767634     0.44200
C1367       C  0.34711198  0.13675171  0.10493151     0.05400
O1368       O  0.39584785  0.14215513  0.13210106    -0.57200
H1369       H  0.38745126  0.18448914  0.15740178     0.18300
O1370       O  0.28997617  0.21627301  0.13894904    -0.63900
H1371       H  0.29816148  0.17315901  0.11428526     0.16800
C1372       C  0.35529987  0.10492880  0.10584000     0.29000
C1373       C  0.36274626  0.08861241  0.08969087    -0.24800
C1374       C  0.36206927  0.10368345  0.07253226    -0.24100
C1375       C  0.35133276  0.13469189  0.07150900     0.40500
C1376       C  0.34376070  0.15091949  0.08762377    -0.26600
O1377       O  0.35727725  0.08992352  0.12245824    -0.58500
H1378       H  0.37095074  0.06473374  0.09072259     0.16100
O1379       O  0.34869279  0.14946024  0.05483072    -0.59900
H1380       H  0.33687446  0.17521572  0.08663696     0.14600
H1381       H  0.29286458  0.23284509  0.12957124     0.46400
H1382       H  0.33570186  0.08269767  0.12513399     0.41800
H1383       H  0.36721998  0.16333955  0.05397896     0.45300
H1384       H  0.39624896  0.12739088  0.14260568     0.36700
C1385       C  0.69350544  0.38484692  0.99650576    -0.27500
C1386       C  0.70115833  0.36079230  0.98418487     0.02100
C1387       C  0.68086837  0.33500335  0.98257429     0.30200
C1388       C  0.65327886  0.33373174  0.99303128    -0.19300
C1389       C  0.64539638  0.35790748  0.00533493    -0.28700
C1390       C  0.66611188  0.38352390  0.00709746     0.44200
C1391       C  0.73020767  0.36297555  0.97297893     0.05400
O1392       O  0.68763889  0.31102863  0.97067741    -0.57200
H1393       H  0.63802843  0.31369176  0.99148506     0.18300
O1394       O  0.65964184  0.40777509  0.01885767    -0.63900
H1395       H  0.70900615  0.40470792  0.99803176     0.16800
C1396       C  0.73515407  0.38820827  0.96092044     0.29000
C1397       C  0.76246255  0.38961709  0.95022447    -0.24800
C1398       C  0.78553832  0.36628369  0.95147063    -0.24100
C1399       C  0.78055139  0.34108153  0.96369048     0.40500
C1400       C  0.75314273  0.33964818  0.97429388    -0.26600
O1401       O  0.71276912  0.41091422  0.95891783    -0.58500
H1402       H  0.76547503  0.40905624  0.94086515     0.16100
O1403       O  0.80208547  0.31749360  0.96529759    -0.59900
H1404       H  0.74975521  0.32017683  0.98359282     0.14600
H1405       H  0.67099045  0.40274283  0.03038351     0.46400
H1406       H  0.72055604  0.42902844  0.96610425     0.41800
H1407       H  0.79573643  0.30163509  0.95605725     0.45300
H1408       H  0.67957633  0.31794078  0.95855030     0.36700
C1409       C  0.61804542  0.24744975  0.08677042    -0.27500
C1410       C  0.62184860  0.26018122  0.10438971     0.02100
C1411       C  0.61944085  0.29264467  0.10690081     0.30200
C1412       C  0.61226053  0.31187363  0.09189786    -0.19300
C1413       C  0.60683587  0.29899792  0.07436106    -0.28700
C1414       C  0.61054063  0.26647971  0.07182910     0.44200
C1415       C  0.62660083  0.23882818  0.12005539     0.05400
O1416       O  0.62422057  0.30568781  0.12393478    -0.57200
H1417       H  0.60967171  0.33674327  0.09419489     0.18300
O1418       O  0.60572498  0.25277642  0.05498805    -0.63900
H1419       H  0.61985533  0.22243560  0.08471661     0.16800
C1420       C  0.60349299  0.23555699  0.13371872     0.29000
C1421       C  0.60671248  0.21269128  0.14729791    -0.24800
C1422       C  0.63257263  0.19238333  0.14730954    -0.24100
C1423       C  0.65607395  0.19625094  0.13380397     0.40500
C1424       C  0.65292163  0.21934543  0.12033851    -0.26600
O1425       O  0.57705213  0.25372657  0.13347278    -0.58500
H1426       H  0.58829005  0.21015695  0.15744390     0.16100
O1427       O  0.68224845  0.17770054  0.13361458    -0.59900
H1428       H  0.67078378  0.22164864  0.10982473     0.14600
H1429       H  0.62638772  0.25334000  0.04876846     0.46400
H1430       H  0.56213501  0.24249483  0.12536904     0.41800
H1431       H  0.67784427  0.16121129  0.12436689     0.45300
H1432       H  0.60315346  0.31181733  0.12840614     0.36700
C1433       C  0.44371783  0.31367755  0.12838587    -0.27500
C1434       C  0.42987449  0.33251388  0.11494303     0.02100
C1435       C  0.39960864  0.34440345  0.11789785     0.30200
C1436       C  0.38291442  0.33584582  0.13377278    -0.19300
C1437       C  0.39634890  0.31592377  0.14699165    -0.28700
C1438       C  0.42747275  0.30560236  0.14435010     0.44200
C1439       C  0.44737925  0.33821691  0.09772331     0.05400
O1440       O  0.38551081  0.36272118  0.10484291    -0.57200
H1441       H  0.35909869  0.34406281  0.13544399     0.18300
O1442       O  0.44171898  0.28599678  0.15668088    -0.63900
H1443       H  0.46716290  0.30464670  0.12629923     0.16800
C1444       C  0.45988954  0.36776893  0.09375289     0.29000
C1445       C  0.48140870  0.37111759  0.07932643    -0.24800
C1446       C  0.49058738  0.34525461  0.06860807    -0.24100
C1447       C  0.47644160  0.31602884  0.07195371     0.40500
C1448       C  0.45507337  0.31273779  0.08643043    -0.26600
O1449       O  0.45326641  0.39287756  0.10483825    -0.58500
H1450       H  0.49189970  0.39381340  0.07702588     0.16100
O1451       O  0.48456789  0.29013096  0.06188908    -0.59900
H1452       H  0.44555047  0.28983686  0.08941578     0.14600
H1453       H  0.45331898  0.29993289  0.16519345     0.46400
H1454       H  0.43831322  0.40578259  0.09770509     0.41800
H1455       H  0.50195510  0.28028154  0.06881426     0.45300
H1456       H  0.38565255  0.38415002  0.11004156     0.36700
C1457       C  0.80485174  0.89520248  0.99637970    -0.27500
C1458       C  0.80116634  0.87141371  0.98326198     0.02100
C1459       C  0.82438531  0.84816643  0.98186463     0.30200
C1460       C  0.85074853  0.84900909  0.99344325    -0.19300
C1461       C  0.85440506  0.87267988  0.00675883    -0.28700
C1462       C  0.83087098  0.89583213  0.00815670     0.44200
C1463       C  0.77294509  0.87124309  0.97118752     0.05400
O1464       O  0.82210288  0.82525014  0.96870972    -0.57200
H1465       H  0.86837155  0.83099221  0.99195818     0.18300
O1466       O  0.83303130  0.91941992  0.02088465    -0.63900
H1467       H  0.78717184  0.91322061  0.99767439     0.16800
C1468       C  0.75126306  0.84648338  0.97172922     0.29000
C1469       C  0.72429513  0.84731470  0.96071730    -0.24800
C1470       C  0.71819635  0.87269122  0.94895615    -0.24100
C1471       C  0.74006964  0.89745702  0.94838530     0.40500
C1472       C  0.76692535  0.89669365  0.95954618    -0.26600
O1473       O  0.75584449  0.82162415  0.98329230    -0.58500
H1474       H  0.70795488  0.82801993  0.96150962     0.16100
O1475       O  0.73490418  0.92312782  0.93754479    -0.59900
H1476       H  0.78317209  0.91611055  0.95911017     0.14600
H1477       H  0.82137900  0.91178654  0.03180306     0.46400
H1478       H  0.74612153  0.82789684  0.99513700     0.41800
H1479       H  0.74718480  0.91930830  0.92616924     0.45300
H1480       H  0.81693557  0.80587717  0.97552629     0.36700
C1481       C  0.56175314  0.94898394  0.97874174    -0.27500
C1482       C  0.54801128  0.97432162  0.96954960     0.02100
C1483       C  0.55960665  0.98283202  0.95207481     0.30200
C1484       C  0.58333362  0.96508619  0.94370936    -0.19300
C1485       C  0.59546422  0.93839366  0.95239892    -0.28700
C1486       C  0.58508181  0.93102814  0.97031562     0.44200
C1487       C  0.52114726  0.99098743  0.97819695     0.05400
O1488       O  0.54684351  0.00745513  0.94264858    -0.57200
H1489       H  0.59069333  0.97101109  0.92987139     0.18300
O1490       O  0.59663116  0.90551098  0.97945527    -0.63900
H1491       H  0.55384556  0.94261975  0.99240284     0.16800
C1492       C  0.49493170  0.97439214  0.98478966     0.29000
C1493       C  0.47075625  0.99015753  0.99396276    -0.24800
C1494       C  0.47211457  0.02258055  0.99685652    -0.24100
C1495       C  0.49787864  0.03933587  0.98964537     0.40500
C1496       C  0.52200363  0.02353382  0.98041245    -0.26600
O1497       O  0.49243976  0.94278607  0.98197347    -0.58500
H1498       H  0.45114862  0.97674463  0.99914871     0.16100
O1499       O  0.50023966  0.07105357  0.99191202    -0.59900
H1500       H  0.54197220  0.03669285  0.97548392     0.14600
H1501       H  0.61623106  0.91284093  0.98534888     0.46400
H1502       H  0.49575656  0.93314062  0.99422237     0.41800
H1503       H  0.51290888  0.07396753  0.00322071     0.45300
H1504       H  0.52894176  0.99849671  0.93574380     0.36700
C1505       C  0.33928876  0.98274082  0.76680367    -0.27500
C1506       C  0.35569120  0.98310761  0.75010548     0.02100
C1507       C  0.37286333  0.95660921  0.74471241     0.30200
C1508       C  0.37309751  0.93000648  0.75589052    -0.19300
C1509       C  0.35617164  0.92927549  0.77251446    -0.28700
C1510       C  0.33957162  0.95627224  0.77804493     0.44200
C1511       C  0.35392226  0.01100270  0.73820849     0.05400
O1512       O  0.38888720  0.95624029  0.72834124    -0.57200
H1513       H  0.38603367  0.90967138  0.75130150     0.18300
O1514       O  0.32313441  0.95702609  0.79426302    -0.63900
H1515       H  0.32613728  0.00312160  0.77112579     0.16800
C1516       C  0.32503037  0.02086425  0.73101926     0.29000
C1517       C  0.32356890  0.04736480  0.71987220    -0.24800
C1518       C  0.35070364  0.06452001  0.71569117    -0.24100
C1519       C  0.37966705  0.05466104  0.72298774     0.40500
C1520       C  0.38111089  0.02793962  0.73406279    -0.26600
O1521       O  0.29812844  0.00448032  0.73462318    -0.58500
H1522       H  0.30107651  0.05436667  0.71437262     0.16100
O1523       O  0.40685981  0.07008267  0.71875372    -0.59900
H1524       H  0.40350014  0.02044820  0.73948403     0.14600
H1525       H  0.33814016  0.96503030  0.80355202     0.46400
H1526       H  0.29711623  0.98814865  0.72494168     0.41800
H1527       H  0.41039728  0.08467332  0.72916320     0.45300
H1528       H  0.37346832  0.94909800  0.71904522     0.36700
C1529       C  0.47569997  0.88411850  0.84174586    -0.27500
C1530       C  0.47062751  0.88246084  0.86077217     0.02100
C1531       C  0.43986654  0.87934986  0.86750338     0.30200
C1532       C  0.41478824  0.87655927  0.85511803    -0.19300
C1533       C  0.42019519  0.87618944  0.83603699    -0.28700
C1534       C  0.45086025  0.88097875  0.82941716     0.44200
C1535       C  0.49810814  0.88240662  0.87314368     0.05400
O1536       O  0.43420307  0.87924255  0.88610264    -0.57200
H1537       H  0.39134527  0.87317554  0.86045586     0.18300
O1538       O  0.45698929  0.88175582  0.81088372    -0.63900
H1539       H  0.49924726  0.88676708  0.83640698     0.16800
C1540       C  0.50585068  0.85570447  0.88344679     0.29000
C1541       C  0.53415790  0.85457196  0.89315198    -0.24800
C1542       C  0.55518871  0.87977497  0.89267610    -0.24100
C1543       C  0.54695928  0.90682604  0.88267995     0.40500
C1544       C  0.51863143  0.90793483  0.87303690    -0.26600
O1545       O  0.48694613  0.82981218  0.88303009    -0.58500
H1546       H  0.54005343  0.83350544  0.90062404     0.16100
O1547       O  0.56613223  0.93252276  0.88247285    -0.59900
H1548       H  0.51290822  0.92859938  0.86513091     0.14600
H1549       H  0.45328532  0.90372244  0.80716747     0.46400
H1550       H  0.47753899  0.82848037  0.89548948     0.41800
H1551       H  0.57770112  0.93124214  0.87065121     0.45300
H1552       H  0.42726623  0.85771210  0.88903726     0.36700
C1553       C  0.23743768  0.54672203  0.95681776    -0.27500
C1554       C  0.23130257  0.57194256  0.96860913     0.02100
C1555       C  0.25340075  0.59614322  0.97021296     0.30200
C1556       C  0.28143913  0.59459774  0.96028975    -0.19300
C1557       C  0.28773257  0.56928376  0.94852405    -0.28700
C1558       C  0.26524733  0.54533342  0.94671140     0.44200
C1559       C  0.20253528  0.57171125  0.97990025     0.05400
O1560       O  0.24857408  0.62041518  0.98224826    -0.57200
H1561       H  0.29837473  0.61322872  0.96191774     0.18300
O1562       O  0.27075258  0.51975652  0.93578427    -0.63900
H1563       H  0.22064487  0.52786947  0.95555992     0.16800
C1564       C  0.18069388  0.59624269  0.97905337     0.29000
C1565       C  0.15385141  0.59538728  0.99005959    -0.24800
C1566       C  0.14808896  0.57004308  0.00188381    -0.24100
C1567       C  0.16992908  0.54529882  0.00251100     0.40500
C1568       C  0.19676312  0.54627024  0.99152473    -0.26600
O1569       O  0.18513344  0.62094475  0.96734685    -0.58500
H1570       H  0.13741991  0.61459815  0.98922042     0.16100
O1571       O  0.16515833  0.51978145  0.01354906    -0.59900
H1572       H  0.21333649  0.52714412  0.99220402     0.14600
H1573       H  0.25994011  0.52427993  0.92401040     0.46400
H1574       H  0.17658899  0.61394653  0.95533720     0.41800
H1575       H  0.17673964  0.52437255  0.02506803     0.45300
H1576       H  0.24513880  0.63906608  0.97442837     0.36700
C1577       C  0.49660015  0.45278121  0.98828645    -0.27500
C1578       C  0.46979135  0.43819655  0.98114396     0.02100
C1579       C  0.46593631  0.40583752  0.98335448     0.30200
C1580       C  0.48839472  0.38862340  0.99294769    -0.19300
C1581       C  0.51467300  0.40334626  0.00075190    -0.28700
C1582       C  0.51884465  0.43567658  0.99816544     0.44200
C1583       C  0.44578245  0.45718403  0.97174235     0.05400
O1584       O  0.43981964  0.39100121  0.97670943    -0.57200
H1585       H  0.48451910  0.36384895  0.99492413     0.18300
O1586       O  0.54472943  0.45068448  0.00498906    -0.63900
H1587       H  0.50008913  0.47763187  0.98637187     0.16800
C1588       C  0.43199868  0.48285289  0.98073418     0.29000
C1589       C  0.41193102  0.50265464  0.97109850    -0.24800
C1590       C  0.40494743  0.49707016  0.95250095    -0.24100
C1591       C  0.41716076  0.47019978  0.94382775     0.40500
C1592       C  0.43755792  0.45053994  0.95345799    -0.26600
O1593       O  0.43881217  0.48934948  0.99878770    -0.58500
H1594       H  0.40264241  0.52308584  0.97802848     0.16100
O1595       O  0.41163802  0.46446072  0.92553688    -0.59900
H1596       H  0.44806126  0.43084970  0.94638683     0.14600
H1597       H  0.53757191  0.46097263  0.01648984     0.46400
H1598       H  0.42421540  0.47623891  0.00606035     0.41800
H1599       H  0.39376279  0.44969539  0.92533073     0.45300
H1600       H  0.42381097  0.39331410  0.98651658     0.36700
C1601       C  0.34233643  0.69244927  0.88208120    -0.27500
C1602       C  0.33684796  0.68666878  0.86337220     0.02100
C1603       C  0.33417493  0.65560129  0.85718445     0.30200
C1604       C  0.33803244  0.63086159  0.86959813    -0.19300
C1605       C  0.34474461  0.63667757  0.88824327    -0.28700
C1606       C  0.34630427  0.66790071  0.89446407     0.44200
C1607       C  0.33636648  0.71342310  0.85049143     0.05400
O1608       O  0.32850903  0.64919227  0.83898821    -0.57200
H1609       H  0.33679458  0.60711323  0.86448628     0.18300
O1610       O  0.35181713  0.67480178  0.91262793    -0.63900
H1611       H  0.34476401  0.71619773  0.88704758     0.16800
C1612       C  0.31687030  0.73930064  0.85379595     0.29000
C1613       C  0.32020945  0.76635171  0.84322555    -0.24800
C1614       C  0.34298858  0.76825870  0.82927564    -0.24100
C1615       C  0.36128015  0.74162194  0.82530325     0.40500
C1616       C  0.35803028  0.71460938  0.83597719    -0.26600
O1617       O  0.29431535  0.73818315  0.86725363    -0.58500
H1618       H  0.30517576  0.78608882  0.84623336     0.16100
O1619       O  0.38319905  0.74199195  0.81150721    -0.59900
H1620       H  0.37334169  0.69492666  0.83334580     0.14600
H1621       H  0.37437565  0.68017221  0.91329563     0.46400
H1622       H  0.30181815  0.75224836  0.87717740     0.41800
H1623       H  0.37213452  0.73397954  0.80046796     0.45300
H1624       H  0.30538501  0.64878099  0.83784253     0.36700
C1625       C  0.65309536  0.42360530  0.72084557    -0.27500
C1626       C  0.63002707  0.42864945  0.73430107     0.02100
C1627       C  0.60707700  0.40543228  0.73703334     0.30200
C1628       C  0.60748519  0.37790400  0.72642863    -0.19300
C1629       C  0.63074649  0.37273432  0.71300008    -0.28700
C1630       C  0.65374130  0.39607939  0.71036620     0.44200
C1631       C  0.63069227  0.45801604  0.74547660     0.05400
O1632       O  0.58432961  0.40921768  0.75017885    -0.57200
H1633       H  0.58954074  0.36049808  0.72880429     0.18300
O1634       O  0.67669417  0.39268836  0.69730484    -0.63900
H1635       H  0.67075324  0.44126932  0.71836287     0.16800
C1636       C  0.65804182  0.46700199  0.75494861     0.29000
C1637       C  0.65900493  0.49523928  0.76472267    -0.24800
C1638       C  0.63299988  0.51536546  0.76531299    -0.24100
C1639       C  0.60543899  0.50625663  0.75600454     0.40500
C1640       C  0.60439402  0.47774718  0.74631058    -0.26600
O1641       O  0.68408222  0.44826696  0.75477720    -0.58500
H1642       H  0.68044637  0.50152873  0.77176404     0.16100
O1643       O  0.57908831  0.52449874  0.75675244    -0.59900
H1644       H  0.58311275  0.47129403  0.73915552     0.14600
H1645       H  0.69484080  0.38373210  0.70396616     0.46400
H1646       H  0.68096005  0.43335522  0.76504634     0.41800
H1647       H  0.57926616  0.53672620  0.74517159     0.45300
H1648       H  0.59362297  0.40098914  0.76169693     0.36700
C1649       C  0.52194975  0.56417850  0.84026704    -0.27500
C1650       C  0.53076296  0.56239174  0.85879229     0.02100
C1651       C  0.56261128  0.56287363  0.86356479     0.30200
C1652       C  0.58530448  0.56584113  0.84975532    -0.19300
C1653       C  0.57641067  0.56902548  0.83123894    -0.28700
C1654       C  0.54442959  0.56752705  0.82652374     0.44200
C1655       C  0.50597178  0.56059705  0.87278691     0.05400
O1656       O  0.57164703  0.56006929  0.88160574    -0.57200
H1657       H  0.60976456  0.56695401  0.85362381     0.18300
O1658       O  0.53477476  0.57006619  0.80857951    -0.63900
H1659       H  0.49740838  0.56370321  0.83649586     0.16800
C1660       C  0.50032086  0.58564187  0.88488803     0.29000
C1661       C  0.47332007  0.58568494  0.89580511    -0.24800
C1662       C  0.45173542  0.56103238  0.89466339    -0.24100
C1663       C  0.45838270  0.53525548  0.88318309     0.40500
C1664       C  0.48536654  0.53522146  0.87237691    -0.26600
O1665       O  0.51965345  0.61122347  0.88499639    -0.58500
H1666       H  0.46857026  0.60570696  0.90451049     0.16100
O1667       O  0.43869529  0.50996823  0.88241417    -0.59900
H1668       H  0.48970179  0.51578778  0.86313850     0.14600
H1669       H  0.53615594  0.54860940  0.80348208     0.46400
H1670       H  0.53121109  0.61007808  0.89680938     0.41800
H1671       H  0.42622227  0.51285395  0.87103216     0.45300
H1672       H  0.57952920  0.58099280  0.88519843     0.36700
C1673       C  0.68249382  0.70794273  0.84464804    -0.27500
C1674       C  0.65918463  0.73098400  0.84507226     0.02100
C1675       C  0.63226297  0.72692362  0.83408680     0.30200
C1676       C  0.62869277  0.69983764  0.82329879    -0.19300
C1677       C  0.65156529  0.67619498  0.82338854    -0.28700
C1678       C  0.67898749  0.68092450  0.83394715     0.44200
C1679       C  0.66215491  0.75781161  0.85808786     0.05400
O1680       O  0.60880616  0.74878569  0.83426448    -0.57200
H1681       H  0.60753912  0.69695067  0.81526529     0.18300
O1682       O  0.70255245  0.65917501  0.83409364    -0.63900
H1683       H  0.70346377  0.71076138  0.85286543     0.16800
C1684       C  0.66559415  0.75242011  0.87710500     0.29000
C1685       C  0.66581294  0.77748001  0.88949024    -0.24800
C1686       C  0.66262794  0.80843385  0.88336944    -0.24100
C1687       C  0.66091698  0.81404091  0.86424244     0.40500
C1688       C  0.66040838  0.78880531  0.85178771    -0.26600
O1689       O  0.66730778  0.72256857  0.88385019    -0.58500
H1690       H  0.66719458  0.77251810  0.90409011     0.16100
O1691       O  0.65737352  0.84380897  0.85764384    -0.59900
H1692       H  0.65799907  0.79341389  0.83719796     0.14600
H1693       H  0.71617717  0.66469311  0.82352490     0.46400
H1694       H  0.64528447  0.71614103  0.88593329     0.41800
H1695       H  0.67883772  0.85082925  0.85449410     0.45300
H1696       H  0.59536281  0.74313155  0.84488831     0.36700
C1697       C  0.75959243  0.56027041  0.45193444    -0.27500
C1698       C  0.75744038  0.56637161  0.47087049     0.02100
C1699       C  0.72774402  0.57064508  0.47892194     0.30200
C1700       C  0.70072953  0.56880071  0.46802129    -0.19300
C1701       C  0.70282632  0.56193012  0.44915009    -0.28700
C1702       C  0.73259543  0.55787466  0.44110552     0.44200
C1703       C  0.78638036  0.56821853  0.48205062     0.05400
O1704       O  0.72503782  0.57762082  0.49729844    -0.57200
H1705       H  0.67805317  0.57221272  0.47441053     0.18300
O1706       O  0.73561209  0.55198772  0.42262289    -0.63900
H1707       H  0.78231761  0.55708673  0.44556529     0.16800
C1708       C  0.79202756  0.54680906  0.49632454     0.29000
C1709       C  0.81952203  0.54888683  0.50670203    -0.24800
C1710       C  0.84201289  0.57210848  0.50306426    -0.24100
C1711       C  0.83637367  0.59339713  0.48860016     0.40500
C1712       C  0.80886457  0.59115316  0.47816202    -0.26600
O1713       O  0.77094746  0.52353553  0.50013064    -0.58500
H1714       H  0.82318514  0.53215279  0.51765723     0.16100
O1715       O  0.85772137  0.61616353  0.48430231    -0.59900
H1716       H  0.80490702  0.60759262  0.46708143     0.14600
H1717       H  0.73524003  0.57280762  0.41666194     0.46400
H1718       H  0.77623212  0.50634387  0.49150397     0.41800
H1719       H  0.85070711  0.63495874  0.49115558     0.45300
H1720       H  0.71687901  0.55834293  0.50314538     0.36700
C1721       C  0.01489822  0.52992640  0.47572101    -0.27500
C1722       C  0.01633985  0.49732636  0.47671429     0.02100
C1723       C  0.99463082  0.48109443  0.48770404     0.30200
C1724       C  0.97292924  0.49754923  0.49827848    -0.19300
C1725       C  0.97218563  0.53031209  0.49797286    -0.28700
C1726       C  0.99295544  0.54648803  0.48617127     0.44200
C1727       C  0.04087776  0.48010782  0.46666839     0.05400
O1728       O  0.99481524  0.44908149  0.48844742    -0.57200
H1729       H  0.95707238  0.48455082  0.50703347     0.18300
O1730       O  0.99305205  0.57847826  0.48531293    -0.63900
H1731       H  0.03139671  0.54261390  0.46721373     0.16800
C1732       C  0.04320019  0.48169196  0.44736282     0.29000
C1733       C  0.06343131  0.46142979  0.43803567    -0.24800
C1734       C  0.08080179  0.43913901  0.44780099    -0.24100
C1735       C  0.08021193  0.43920656  0.46713796     0.40500
C1736       C  0.06048070  0.45978831  0.47645657    -0.26600
O1737       O  0.02426025  0.50131575  0.43745512    -0.58500
H1738       H  0.06346253  0.46131278  0.42311325     0.16100
O1739       O  0.09741794  0.41798293  0.47698375    -0.59900
H1740       H  0.05929519  0.45883002  0.49134875     0.14600
H1741       H  0.97879683  0.58375036  0.47500877     0.46400
H1742       H  0.00490538  0.48918144  0.43506177     0.41800
H1743       H  0.11833508  0.42771451  0.47845162     0.45300
H1744       H  0.98244367  0.44218467  0.47763505     0.36700
C1745       C  0.15776938  0.52498945  0.72634078    -0.27500
C1746       C  0.12795329  0.51530871  0.73197968     0.02100
C1747       C  0.10187101  0.53434594  0.72840607     0.30200
C1748       C  0.10600446  0.56300409  0.71944650    -0.19300
C1749       C  0.13591341  0.57266633  0.71367720    -0.28700
C1750       C  0.16191035  0.55333883  0.71723966     0.44200
C1751       C  0.12517268  0.48581316  0.74226496     0.05400
O1752       O  0.07258342  0.52568648  0.73424517    -0.57200
H1753       H  0.08570619  0.57748511  0.71680924     0.18300
O1754       O  0.19153662  0.56197100  0.71203793    -0.63900
H1755       H  0.17800095  0.51045831  0.72909124     0.16800
C1756       C  0.10965226  0.45977952  0.73481042     0.29000
C1757       C  0.11107185  0.43098834  0.74390641    -0.24800
C1758       C  0.12779026  0.42780271  0.76048957    -0.24100
C1759       C  0.14242562  0.45437112  0.76816229     0.40500
C1760       C  0.14096930  0.48299598  0.75905018    -0.26600
O1761       O  0.09479774  0.46180589  0.71811727    -0.58500
H1762       H  0.09964562  0.41098239  0.73771541     0.16100
O1763       O  0.15819157  0.45277069  0.78457244    -0.59900
H1764       H  0.15287873  0.50302546  0.76491276     0.14600
H1765       H  0.20005233  0.57377548  0.72267084     0.46400
H1766       H  0.07211084  0.46110090  0.72099096     0.41800
H1767       H  0.18054709  0.45029548  0.78117502     0.45300
H1768       H  0.06099533  0.51996095  0.72290670     0.36700
C1769       C  0.19599869  0.75193230  0.73742660    -0.27500
C1770       C  0.22675124  0.74470427  0.74246763     0.02100
C1771       C  0.23894837  0.71489435  0.73841542     0.30200
C1772       C  0.22089240  0.69337794  0.72849252    -0.19300
C1773       C  0.19056890  0.70114261  0.72270557    -0.28700
C1774       C  0.17795546  0.73051817  0.72754728     0.44200
C1775       C  0.24626328  0.76894703  0.75126480     0.05400
O1776       O  0.26824420  0.70653144  0.74439638    -0.57200
H1777       H  0.23080819  0.67082215  0.72503973     0.18300
O1778       O  0.14863298  0.73925884  0.72184708    -0.63900
H1779       H  0.18639001  0.77477935  0.74050108     0.16800
C1780       C  0.27447504  0.77860986  0.74307579     0.29000
C1781       C  0.29379490  0.79982458  0.75219839    -0.24800
C1782       C  0.28521094  0.81215847  0.76941716    -0.24100
C1783       C  0.25572504  0.80440619  0.77688801     0.40500
C1784       C  0.23654197  0.78280438  0.76781963    -0.26600
O1785       O  0.28371057  0.76692541  0.72633663    -0.58500
H1786       H  0.31610859  0.80581655  0.74604132     0.16100
O1787       O  0.24642680  0.81586721  0.79365970    -0.59900
H1788       H  0.21453422  0.77598983  0.77405710     0.14600
H1789       H  0.15178106  0.74902393  0.70960864     0.46400
H1790       H  0.27294940  0.78007370  0.71706821     0.41800
H1791       H  0.23434260  0.83502901  0.79081529     0.42100
H1792       H  0.28127479  0.70475492  0.73313628     0.36700
C1793       C  0.09295952  0.59420314  0.61099361    -0.27500
C1794       C  0.06020689  0.59476146  0.61213046     0.02100
C1795       C  0.04572470  0.60343301  0.62872735     0.30200
C1796       C  0.06387288  0.61219238  0.64381326    -0.19300
C1797       C  0.09672313  0.61265883  0.64270063    -0.28700
C1798       C  0.11129410  0.60278018  0.62621104     0.44200
C1799       C  0.04070115  0.58788840  0.59588365     0.05400
O1800       O  0.01370866  0.60424948  0.63016171    -0.57200
H1801       H  0.05202515  0.61943074  0.65630470     0.18300
O1802       O  0.14325610  0.60278603  0.62449396    -0.63900
H1803       H  0.10426849  0.58753317  0.59822267     0.16800
C1804       C  0.03726523  0.61007550  0.58180167     0.29000
C1805       C  0.01408677  0.60607317  0.56837885    -0.24800
C1806       C  0.99417202  0.57990940  0.56871666    -0.24100
C1807       C  0.99902685  0.55681308  0.58234152     0.40500
C1808       C  0.02209470  0.56101277  0.59576812    -0.26600
O1809       O  0.05488908  0.63684093  0.58184299    -0.58500
H1810       H  0.01100068  0.62408485  0.55808775     0.16100
O1811       O  0.98082812  0.53045205  0.58306267    -0.59900
H1812       H  0.02460075  0.54383339  0.60660759     0.14600
H1813       H  0.14984557  0.58128459  0.62774799     0.46400
H1814       H  0.07361803  0.63180901  0.57432856     0.41800
H1815       H  0.96407747  0.53527980  0.59209557     0.45300
H1816       H  0.00756612  0.62529531  0.62577068     0.36700
C1817       C  0.81958870  0.93031313  0.72221620    -0.27500
C1818       C  0.84188138  0.93365874  0.73620278     0.02100
C1819       C  0.86338958  0.90944946  0.73949265     0.30200
C1820       C  0.86245168  0.88233799  0.72880449    -0.19300
C1821       C  0.84026544  0.87891251  0.71467292    -0.28700
C1822       C  0.81857069  0.90322865  0.71150191     0.44200
C1823       C  0.84227896  0.96237440  0.74741911     0.05400
O1824       O  0.88566276  0.91222756  0.75298657    -0.57200
H1825       H  0.87937512  0.86407738  0.73150704     0.18300
O1826       O  0.79680533  0.90125178  0.69768016    -0.63900
H1827       H  0.80276832  0.94874365  0.71965618     0.16800
C1828       C  0.84514057  0.99192796  0.73912228     0.29000
C1829       C  0.84489009  0.01881955  0.75001756    -0.24800
C1830       C  0.84138638  0.01666297  0.76917119    -0.24100
C1831       C  0.83870939  0.98710053  0.77747622     0.40500
C1832       C  0.83938650  0.96019965  0.76659782    -0.26600
O1833       O  0.84798021  0.99475998  0.72038893    -0.58500
H1834       H  0.84668071  0.04144468  0.74343642     0.16100
O1835       O  0.83630458  0.98424060  0.79623263    -0.59900
H1836       H  0.83713991  0.93757403  0.77312608     0.14600
H1837       H  0.77753565  0.89329587  0.70368073     0.46400
H1838       H  0.87072380  0.99294817  0.71786544     0.41800
H1839       H  0.81368685  0.98108021  0.79869204     0.45300
H1840       H  0.90316725  0.92381059  0.74718042     0.36700
C1841       C  0.71498038  0.67527822  0.73826019    -0.27500
C1842       C  0.74553281  0.67803757  0.74488014     0.02100
C1843       C  0.75592491  0.65862963  0.75915562     0.30200
C1844       C  0.73511080  0.63755051  0.76729343    -0.19300
C1845       C  0.70390486  0.63554140  0.76121269    -0.28700
C1846       C  0.69420881  0.65413525  0.74619735     0.44200
C1847       C  0.76637521  0.70085088  0.73622966     0.05400
O1848       O  0.78596194  0.66093123  0.76565466    -0.57200
H1849       H  0.74308978  0.62370667  0.77884100     0.18300
O1850       O  0.66415221  0.65287836  0.73962042    -0.63900
H1851       H  0.70711760  0.68990842  0.72701195     0.16800
C1852       C  0.78332000  0.69247431  0.72043133     0.29000
C1853       C  0.80031103  0.71510856  0.71096595    -0.24800
C1854       C  0.79991674  0.74623413  0.71688918    -0.24100
C1855       C  0.78334638  0.75468217  0.73283200     0.40500
C1856       C  0.76675639  0.73183753  0.74255203    -0.26600
O1857       O  0.78272508  0.66238303  0.71393406    -0.58500
H1858       H  0.81292616  0.70859844  0.69858181     0.16100
O1859       O  0.78337469  0.78498244  0.73898249    -0.59900
H1860       H  0.75345272  0.73838823  0.75466551     0.14600
H1861       H  0.66440086  0.63625199  0.73010199     0.46400
H1862       H  0.76466656  0.66157499  0.70537405     0.41800
H1863       H  0.76525091  0.79500233  0.73285056     0.45300
H1864       H  0.79844810  0.64662321  0.75780433     0.36700
C1865       C  0.85368971  0.67230620  0.58616712    -0.27500
C1866       C  0.85904133  0.66241118  0.60425753     0.02100
C1867       C  0.87027600  0.63208057  0.60754988     0.30200
C1868       C  0.87750290  0.61249553  0.59270960    -0.19300
C1869       C  0.87439259  0.62324736  0.57456401    -0.28700
C1870       C  0.86139289  0.65298992  0.57133645     0.44200
C1871       C  0.85531057  0.68491859  0.61942656     0.05400
O1872       O  0.87471872  0.62170018  0.62521614    -0.57200
H1873       H  0.88744979  0.58968437  0.59541962     0.18300
O1874       O  0.85737856  0.66390876  0.55375406    -0.63900
H1875       H  0.84490557  0.69562045  0.58354196     0.16800
C1876       C  0.88168410  0.69609052  0.62894116     0.29000
C1877       C  0.87811122  0.71860417  0.64269727    -0.24800
C1878       C  0.84844757  0.73087207  0.64688250    -0.24100
C1879       C  0.82201770  0.71963166  0.63725522     0.40500
C1880       C  0.82562323  0.69674009  0.62365761    -0.26600
O1881       O  0.91115822  0.68580550  0.62450197    -0.58500
H1882       H  0.89880245  0.72722024  0.64966427     0.16100
O1883       O  0.79255071  0.73053439  0.64114144    -0.59900
H1884       H  0.80524755  0.68838588  0.61626534     0.14600
H1885       H  0.83687670  0.65547309  0.54972602     0.46400
H1886       H  0.91810929  0.69938480  0.61423208     0.41800
H1887       H  0.78825132  0.74656669  0.63163320     0.45300
H1888       H  0.89763228  0.62274443  0.62730686     0.36700
C1889       C  0.19420197  0.88743044  0.49209976    -0.27500
C1890       C  0.20025629  0.86021740  0.48201176     0.02100
C1891       C  0.17935187  0.83498364  0.48293494     0.30200
C1892       C  0.15274546  0.83706343  0.49401043    -0.19300
C1893       C  0.14662211  0.86416280  0.50436579    -0.28700
C1894       C  0.16774299  0.88949734  0.50335791     0.44200
C1895       C  0.22921484  0.85776877  0.47119487     0.05400
O1896       O  0.18490202  0.80810729  0.47316229    -0.57200
H1897       H  0.13701050  0.81724892  0.49456820     0.18300
O1898       O  0.16275907  0.91643579  0.51317286    -0.63900
H1899       H  0.21040436  0.90687817  0.49152666     0.16800
C1900       C  0.23418785  0.87662740  0.45567973     0.29000
C1901       C  0.26204898  0.87388570  0.44570705    -0.24800
C1902       C  0.28542245  0.85274156  0.45121234    -0.24100
C1903       C  0.28018299  0.83385477  0.46685372     0.40500
C1904       C  0.25221641  0.83648968  0.47666443    -0.26600
O1905       O  0.21159889  0.89715634  0.44991301    -0.58500
H1906       H  0.26542479  0.88857397  0.43374205     0.16100
O1907       O  0.30230759  0.81305190  0.47288583    -0.59900
H1908       H  0.24854151  0.82204073  0.48871188     0.14600
H1909       H  0.17491408  0.91383579  0.52469679     0.46400
H1910       H  0.21772669  0.91763711  0.45518885     0.41800
H1911       H  0.29688129  0.79294499  0.46688913     0.45300
H1912       H  0.17552385  0.81178827  0.46086925     0.36700
C1913       C  0.96764519  0.90832257  0.48161832    -0.27500
C1914       C  0.96849696  0.94097665  0.48061131     0.02100
C1915       C  0.99490974  0.95707967  0.48731093     0.30200
C1916       C  0.01858804  0.94078278  0.49634812    -0.19300
C1917       C  0.01674329  0.90827260  0.49852949    -0.28700
C1918       C  0.99171955  0.89188107  0.49027676     0.44200
C1919       C  0.94132725  0.95833648  0.47333773     0.05400
O1920       O  0.99729217  0.98890313  0.48564394    -0.57200
H1921       H  0.03788765  0.95381661  0.50223659     0.18300
O1922       O  0.98925945  0.86005798  0.49174165    -0.63900
H1923       H  0.94761271  0.89559323  0.47639309     0.16800
C1924       C  0.92883651  0.95171046  0.45583902     0.29000
C1925       C  0.90586600  0.97119573  0.44841530    -0.24800
C1926       C  0.89572955  0.99778071  0.45807882    -0.24100
C1927       C  0.90611934  0.00265244  0.47624859     0.40500
C1928       C  0.92865868  0.98289369  0.48376699    -0.26600
O1929       O  0.94044157  0.92766649  0.44536301    -0.58500
H1930       H  0.89824619  0.96711880  0.43439110     0.16100
O1931       O  0.89609010  0.02790931  0.48628609    -0.59900
H1932       H  0.93731901  0.98761143  0.49751132     0.14600
H1933       H  0.99985001  0.85168091  0.48062575     0.46400
H1934       H  0.95828912  0.93674666  0.43846340     0.41800
H1935       H  0.87709927  0.02059051  0.49284449     0.45300
H1936       H  0.00680557  0.99240510  0.47336272     0.36700
C1937       C  0.12403215  0.77264440  0.63840792    -0.27500
C1938       C  0.14718214  0.77340409  0.62475885     0.02100
C1939       C  0.17334303  0.75367997  0.62619960     0.30200
C1940       C  0.17463629  0.73152981  0.64033952    -0.19300
C1941       C  0.14983906  0.72860345  0.65298057    -0.28700
C1942       C  0.12510782  0.75044319  0.65242711     0.44200
C1943       C  0.14108170  0.79169418  0.60797156     0.05400
O1944       O  0.19741103  0.75576050  0.61371758    -0.57200
H1945       H  0.19435336  0.71564361  0.64080736     0.18300
O1946       O  0.10119602  0.74960940  0.66503668    -0.63900
H1947       H  0.10392645  0.78800465  0.63751585     0.16800
C1948       C  0.13597564  0.77624390  0.59113179     0.29000
C1949       C  0.12383233  0.79267718  0.57616852    -0.24800
C1950       C  0.11675010  0.82459349  0.57765369    -0.24100
C1951       C  0.12330725  0.84036668  0.59429197     0.40500
C1952       C  0.13517098  0.82380722  0.60933262    -0.26600
O1953       O  0.13994273  0.74452273  0.58971729    -0.58500
H1954       H  0.11893432  0.78007032  0.56354937     0.16100
O1955       O  0.11597851  0.87132548  0.59650097    -0.59900
H1956       H  0.13851029  0.83576401  0.62234456     0.14600
H1957       H  0.08403660  0.73796612  0.65890712     0.46400
H1958       H  0.15836496  0.74161620  0.58157499     0.41800
H1959       H  0.13569420  0.88274632  0.59393964     0.45300
H1960       H  0.19763376  0.73555865  0.60702030     0.36700
C1961       C  0.94914239  0.84291762  0.58323996    -0.27500
C1962       C  0.94557811  0.86819097  0.59534736     0.02100
C1963       C  0.96505958  0.89443287  0.59351848     0.30200
C1964       C  0.98897494  0.89440861  0.58042980    -0.19300
C1965       C  0.99389587  0.86835326  0.56898231    -0.28700
C1966       C  0.97307552  0.84279987  0.57011609     0.44200
C1967       C  0.92466486  0.86499008  0.61136949     0.05400
O1968       O  0.96177756  0.91964230  0.60503340    -0.57200
H1969       H  0.00432951  0.91449837  0.57968792     0.18300
O1970       O  0.97632462  0.81723213  0.55886855    -0.63900
H1971       H  0.93443493  0.82244006  0.58462479     0.16800
C1972       C  0.89276994  0.85773156  0.60930554     0.29000
C1973       C  0.87475778  0.85046557  0.62481891    -0.24800
C1974       C  0.88849758  0.84956258  0.64237935    -0.24100
C1975       C  0.92002422  0.85859367  0.64446617     0.40500
C1976       C  0.93781155  0.86616238  0.62902330    -0.26600
O1977       O  0.87922720  0.85729824  0.59218609    -0.58500
H1978       H  0.85054689  0.84365374  0.62293221     0.16100
O1979       O  0.93418019  0.85858503  0.66140765    -0.59900
H1980       H  0.96243458  0.87148732  0.63076257     0.14600
H1981       H  0.98875114  0.80200793  0.56609272     0.46400
H1982       H  0.87672123  0.83488814  0.58903745     0.41800
H1983       H  0.92961337  0.87943789  0.66672650     0.45300
H1984       H  0.94467050  0.93227146  0.59960325     0.36700
loop_ 
_geom_bond_atom_site_label_1 
_geom_bond_atom_site_label_2 
_geom_bond_distance 
_geom_bond_site_symmetry_2 
_ccdc_geom_bond_type 
O1            V9   1.891       .  S
O1           C11   1.264       .  A
O2            V9   1.894       .  S
O2           C12   1.263       .  A
O3            V9   1.892       .  S
O3           C13   1.263       .  A
O4            V9   1.893       .  S
O4           C14   1.264       .  A
O5           V10   1.896       .  S
O5           C14   1.263       .  A
O6           V10   1.892       .  S
O6           C13   1.264       .  A
O7           V10   1.893       .  S
O7           C12   1.264       .  A
O8           V10   1.893       .  S
O8           C11   1.263       .  A
V9           V10   2.086       .  T
C11        C1893   1.477       .  S
C12        C1965   1.478   1_455  S
C13        C1917   1.475       .  S
C14        C1950   1.477       .  S
O15          V23   1.897       .  S
O15          C25   1.265       .  A
O16          V23   1.897       .  S
O16          C26   1.265       .  A
O17          V23   1.886       .  S
O17          C27   1.262       .  A
O18          V23   1.889       .  S
O18          C28   1.260       .  A
O19          V24   1.896       .  S
O19          C28   1.263       .  A
O20          V24   1.898       .  S
O20          C27   1.264       .  A
O21          V24   1.892       .  S
O21          C26   1.263       .  A
O22          V24   1.890       .  S
O22          C25   1.263       .  A
V23          V24   2.085       .  T
C25        C1821   1.478       .  S
C26        C1878   1.477       .  S
C27        C1974   1.472       .  S
C28        C1854   1.456       .  S
O29          V37   1.896       .  S
O29          C39   1.264       .  A
O30          V37   1.892       .  S
O30          C40   1.264       .  A
O31          V37   1.888       .  S
O31          C41   1.263       .  A
O32          V37   1.889       .  S
O32          C42   1.262       .  A
O33          V38   1.901       .  S
O33          C42   1.265       .  A
O34          V38   1.906       .  S
O34          C41   1.266       .  A
O35          V38   1.895       .  S
O35          C40   1.264       .  A
O36          V38   1.893       .  S
O36          C39   1.264       .  A
V37          V38   2.086       .  T
C39        C1749   1.476       .  S
C40        C1941   1.478       .  S
C41        C1797   1.482       .  S
C42        C1773   1.474       .  S
O43          V51   1.906       .  S
O43          C53   1.266       .  A
O44          V51   1.908       .  S
O44          C54   1.268       .  A
O45          V51   1.888       .  S
O45          C55   1.261       .  A
O46          V51   1.887       .  S
O46          C56   1.262       .  A
O47          V52   1.901       .  S
O47          C56   1.265       .  A
O48          V52   1.898       .  S
O48          C55   1.266       .  A
O49          V52   1.892       .  S
O49          C54   1.263       .  A
O50          V52   1.896       .  S
O50          C53   1.264       .  A
V51          V52   2.084       .  T
C53        C1710   1.487       .  S
C54        C1806   1.486       .  S
C55        C1725   1.478       .  S
C56        C1869   1.470       .  S
O57          V65   1.917       .  S
O57          C67   1.269       .  A
O58          V65   1.918       .  S
O58          C68   1.269       .  A
O59          V65   1.883       .  S
O59          C69   1.261       .  A
O60          V65   1.881       .  S
O60          C70   1.260       .  A
O61          V66   1.902       .  S
O61          C70   1.265       .  A
O62          V66   1.899       .  S
O62          C69   1.265       .  A
O63          V66   1.896       .  S
O63          C68   1.264       .  A
O64          V66   1.901       .  S
O64          C67   1.265       .  A
V65          V66   2.085       .  T
C67        C1638   1.494       .  S
C68        C1677   1.493       .  S
C69        C1845   1.476       .  S
C70        C1653   1.471       .  S
O71          V79   1.896       .  S
O71          C81   1.265       .  A
O72          V79   1.900       .  S
O72          C82   1.265       .  A
O73          V79   1.887       .  S
O73          C83   1.262       .  A
O74          V79   1.887       .  S
O74          C84   1.262       .  A
O75          V80   1.903       .  S
O75          C84   1.265       .  A
O76          V80   1.907       .  S
O76          C83   1.267       .  A
O77          V80   1.885       .  S
O77          C82   1.262       .  A
O78          V80   1.893       .  S
O78          C81   1.263       .  A
V79          V80   2.086       .  T
C81        C1557   1.478       .  S
C82        C1662   1.472       .  S
C83        C1605   1.481       .  S
C84        C1590   1.474       .  S
O85          V93   1.901       .  S
O85          C95   1.266       .  A
O86          V93   1.904       .  S
O86          C96   1.266       .  A
O87          V93   1.884       .  S
O87          C97   1.261       .  A
O88          V93   1.887       .  S
O88          C98   1.262       .  A
O89          V94   1.909       .  S
O89          C98   1.266       .  A
O90          V94   1.905       .  S
O90          C97   1.266       .  A
O91          V94   1.891       .  S
O91          C96   1.263       .  A
O92          V94   1.896       .  S
O92          C95   1.264       .  A
V93          V94   2.086       .  T
C95        C1509   1.484       .  S
C96        C1614   1.483       .  S
C97        C1782   1.476       .  S
C98        C1533   1.477       .  S
O99         V107   1.905       .  S
O99         C109   1.266       .  A
O100        V107   1.904       .  S
O100        C110   1.266       .  A
O101        V107   1.890       .  S
O101        C111   1.263       .  A
O102        V107   1.890       .  S
O102        C112   1.262       .  A
O103        V108   1.912       .  S
O103        C112   1.268       .  A
O104        V108   1.919       .  S
O104        C111   1.269       .  A
O105        V108   1.895       .  S
O105        C110   1.263       .  A
O106        V108   1.910       .  S
O106        C109   1.267       .  A
V107        V108   2.085       .  T
C109       C1470   1.494       .  S
C110       C1542   1.482       .  S
C111       C1686   1.488       .  S
C112       C1485   1.483       .  S
O113        V121   1.909       .  S
O113        C123   1.268       .  A
O114        V121   1.906       .  S
O114        C124   1.266       .  A
O115        V121   1.891       .  S
O115        C125   1.263       .  A
O116        V121   1.888       .  S
O116        C126   1.262       .  A
O117        V122   1.903       .  S
O117        C126   1.266       .  A
O118        V122   1.901       .  S
O118        C125   1.265       .  A
O119        V122   1.894       .  S
O119        C124   1.263       .  A
O120        V122   1.897       .  S
O120        C123   1.264       .  A
V121        V122   2.084       .  T
C123       C1389   1.490       .  S
C124       C1446   1.483       .  S
C125       C1581   1.477       .  S
C126       C1413   1.480       .  S
O127        V135   1.909       .  S
O127        C137   1.267       .  A
O128        V135   1.910       .  S
O128        C138   1.268       .  A
O129        V135   1.891       .  S
O129        C139   1.263       .  A
O130        V135   1.894       .  S
O130        C140   1.261       .  A
O131        V136   1.899       .  S
O131        C140   1.265       .  A
O132        V136   1.905       .  S
O132        C139   1.266       .  A
O133        V136   1.884       .  S
O133        C138   1.261       .  A
O134        V136   1.889       .  S
O134        C137   1.263       .  A
V135        V136   2.085       .  T
C137       C1317   1.484       .  S
C138       C1365   1.482       .  S
C139       C1437   1.484       .  S
C140       C1350   1.469       .  S
O141        V149   1.897       .  S
O141        C151   1.264       .  A
O142        V149   1.899       .  S
O142        C152   1.265       .  A
O143        V149   1.899       .  S
O143        C153   1.265       .  A
O144        V149   1.899       .  S
O144        C154   1.264       .  A
O145        V150   1.894       .  S
O145        C154   1.263       .  A
O146        V150   1.896       .  S
O146        C153   1.265       .  A
O147        V150   1.895       .  S
O147        C152   1.263       .  A
O148        V150   1.896       .  S
O148        C151   1.265       .  A
V149        V150   2.085       .  T
C151       C1254   1.481       .  S
C152       C1422   1.481       .  S
C153       C1302   1.483       .  S
C154       C1269   1.474       .  S
O155        V163   1.900       .  S
O155        C165   1.264       .  A
O156        V163   1.898       .  S
O156        C166   1.265       .  A
O157        V163   1.899       .  S
O157        C167   1.264       .  A
O158        V163   1.892       .  S
O158        C168   1.263       .  A
O159        V164   1.903       .  S
O159        C168   1.265       .  A
O160        V164   1.903       .  S
O160        C167   1.267       .  A
O161        V164   1.895       .  S
O161        C166   1.263       .  A
O162        V164   1.900       .  S
O162        C165   1.265       .  A
V163        V164   2.086       .  T
C165       C1230   1.479   1_554  S
C166       C1293   1.479       .  S
C167       C1494   1.488   1_554  S
C168       C1374   1.474       .  S
O169        V177   1.903       .  S
O169        C179   1.265       .  A
O170        V177   1.902       .  S
O170        C180   1.266       .  A
O171        V177   1.888       .  S
O171        C181   1.263       .  A
O172        V177   1.886       .  S
O172        C182   1.262       .  A
O173        V178   1.907       .  S
O173        C182   1.266       .  A
O174        V178   1.905       .  S
O174        C181   1.266       .  A
O175        V178   1.889       .  S
O175        C180   1.262       .  A
O176        V178   1.895       .  S
O176        C179   1.264       .  A
V177        V178   2.085       .  T
C179       C1149   1.483       .  S
C180       C1206   1.481       .  S
C181       C1278   1.482       .  S
C182       C1173   1.478       .  S
O183        V191   1.901       .  S
O183        C193   1.265       .  A
O184        V191   1.906       .  S
O184        C194   1.266       .  A
O185        V191   1.888       .  S
O185        C195   1.263       .  A
O186        V191   1.886       .  S
O186        C196   1.262       .  A
O187        V192   1.898       .  S
O187        C196   1.263       .  A
O188        V192   1.900       .  S
O188        C195   1.265       .  A
O189        V192   1.888       .  S
O189        C194   1.263       .  A
O190        V192   1.892       .  S
O190        C193   1.264       .  A
V191        V192   2.086       .  T
C193       C1101   1.482       .  S
C194       C1182   1.477       .  S
C195       C1134   1.479       .  S
C196       C1734   1.463       .  S
O197        V205   1.901       .  S
O197        C207   1.266       .  A
O198        V205   1.900       .  S
O198        C208   1.265       .  A
O199        V205   1.891       .  S
O199        C209   1.264       .  A
O200        V205   1.886       .  S
O200        C210   1.262       .  A
O201        V206   1.901       .  S
O201        C210   1.264       .  A
O202        V206   1.902       .  S
O202        C209   1.265       .  A
O203        V206   1.890       .  S
O203        C208   1.262       .  A
O204        V206   1.893       .  S
O204        C207   1.263       .  A
V205        V206   2.085       .  T
C207       C1053   1.483   1_545  S
C208       C1125   1.476       .  S
C209       C1341   1.480       .  S
C210       C1086   1.473       .  S
O211        V219   1.899       .  S
O211        C221   1.265       .  A
O212        V219   1.903       .  S
O212        C222   1.265       .  A
O213        V219   1.890       .  S
O213        C223   1.263       .  A
O214        V219   1.885       .  S
O214        C224   1.262       .  A
O215        V220   1.897       .  S
O215        C224   1.264       .  A
O216        V220   1.902       .  S
O216        C223   1.265       .  A
O217        V220   1.884       .  S
O217        C222   1.262       .  A
O218        V220   1.888       .  S
O218        C221   1.263       .  A
V219        V220   2.087       .  T
C221       C1038   1.479       .  S
C222       C1077   1.471       .  S
C223       C1197   1.481       .  S
C224       C1926   1.470   1_545  S
O225        V233   1.912       .  S
O225        C235   1.268       .  A
O226        V233   1.905       .  S
O226        C236   1.266       .  A
O227        V233   1.896       .  S
O227        C237   1.263       .  A
O228        V233   1.892       .  S
O228        C238   1.264       .  A
O229        V234   1.901       .  S
O229        C238   1.265       .  A
O230        V234   1.899       .  S
O230        C237   1.265       .  A
O231        V234   1.899       .  S
O231        C236   1.265       .  A
O232        V234   1.902       .  S
O232        C235   1.266       .  A
V233        V234   2.084       .  T
C235       C1629   1.496       .  S
C236       C1005   1.486       .  S
C237        C957   1.479       .  S
C238        C990   1.482       .  S
O239        V247   1.900       .  S
O239        C249   1.265       .  A
O240        V247   1.905       .  S
O240        C250   1.266       .  A
O241        V247   1.884       .  S
O241        C251   1.262       .  A
O242        V247   1.886       .  S
O242        C252   1.260       .  A
O243        V248   1.890       .  S
O243        C252   1.263       .  A
O244        V248   1.895       .  S
O244        C251   1.264       .  A
O245        V248   1.891       .  S
O245        C250   1.263       .  A
O246        V248   1.892       .  S
O246        C249   1.264       .  A
V247        V248   2.087       .  T
C249       C1110   1.482       .  S
C250        C981   1.481       .  S
C251        C933   1.473       .  S
C252        C918   1.456       .  S
O253        V261   1.903       .  S
O253        C263   1.266       .  A
O254        V261   1.898       .  S
O254        C264   1.266       .  A
O255        V261   1.895       .  S
O255        C265   1.262       .  A
O256        V261   1.886       .  S
O256        C266   1.262       .  A
O257        V262   1.904       .  S
O257        C266   1.266       .  A
O258        V262   1.902       .  S
O258        C265   1.267       .  A
O259        V262   1.886       .  S
O259        C264   1.261       .  A
O260        V262   1.890       .  S
O260        C263   1.263       .  A
V261        V262   2.086       .  T
C263       C1518   1.480       .  S
C264        C942   1.476       .  S
C265        C861   1.479       .  S
C266        C894   1.479       .  S
O267        V275   1.896       .  S
O267        C277   1.264       .  A
O268        V275   1.899       .  S
O268        C278   1.265       .  A
O269        V275   1.890       .  S
O269        C279   1.263       .  A
O270        V275   1.890       .  S
O270        C280   1.262       .  A
O271        V276   1.895       .  S
O271        C280   1.265       .  A
O272        V276   1.904       .  S
O272        C279   1.266       .  A
O273        V276   1.891       .  S
O273        C278   1.263       .  A
O274        V276   1.893       .  S
O274        C277   1.263       .  A
V275        V276   2.085       .  T
C277       C1029   1.478       .  S
C278        C885   1.478       .  S
C279       C1014   1.480       .  S
C280        C837   1.477       .  S
O281        V289   1.898       .  S
O281        C291   1.264       .  A
O282        V289   1.899       .  S
O282        C292   1.264       .  A
O283        V289   1.901       .  S
O283        C293   1.265       .  A
O284        V289   1.899       .  S
O284        C294   1.265       .  A
O285        V290   1.901       .  S
O285        C294   1.265       .  A
O286        V290   1.901       .  S
O286        C293   1.265       .  A
O287        V290   1.889       .  S
O287        C292   1.264       .  A
O288        V290   1.894       .  S
O288        C291   1.264       .  A
V289        V290   2.085       .  T
C291       C1758   1.481       .  S
C292        C822   1.476       .  S
C293        C789   1.483       .  S
C294        C870   1.484       .  S
O295        V303   1.901       .  S
O295        C305   1.265       .  A
O296        V303   1.906       .  S
O296        C306   1.267       .  A
O297        V303   1.886       .  S
O297        C307   1.262       .  A
O298        V303   1.883       .  S
O298        C308   1.261       .  A
O299        V304   1.900       .  S
O299        C308   1.264       .  A
O300        V304   1.899       .  S
O300        C307   1.264       .  A
O301        V304   1.901       .  S
O301        C306   1.265       .  A
O302        V304   1.905       .  S
O302        C305   1.267       .  A
V303        V304   2.086       .  T
C305       C1398   1.490       .  S
C306        C798   1.488       .  S
C307        C741   1.470       .  S
C308        C765   1.470       .  S
O309        V317   1.895       .  S
O309        C319   1.264       .  A
O310        V317   1.899       .  S
O310        C320   1.265       .  A
O311        V317   1.886       .  S
O311        C321   1.262       .  A
O312        V317   1.883       .  S
O312        C322   1.261       .  A
O313        V318   1.906       .  S
O313        C322   1.266       .  A
O314        V318   1.907       .  S
O314        C321   1.266       .  A
O315        V318   1.885       .  S
O315        C320   1.261       .  A
O316        V318   1.889       .  S
O316        C319   1.262       .  A
V317        V318   2.087       .  T
C319       C1830   1.467       .  S
C320        C774   1.470       .  S
C321        C717   1.477       .  S
C322        C966   1.474       .  S
O323        V331   1.905       .  S
O323        C333   1.267       .  A
O324        V331   1.903       .  S
O324        C334   1.266       .  A
O325        V331   1.878       .  S
O325        C335   1.260       .  A
O326        V331   1.879       .  S
O326        C336   1.261       .  A
O327        V332   1.910       .  S
O327        C336   1.267       .  A
O328        V332   1.910       .  S
O328        C335   1.267       .  A
O329        V332   1.887       .  S
O329        C334   1.262       .  A
O330        V332   1.896       .  S
O330        C333   1.264       .  A
V331        V332   2.084       .  T
C333       C1221   1.484       .  S
C334        C726   1.480       .  S
C335        C693   1.475       .  S
C336        C813   1.481       .  S
O337        V345   1.896       .  S
O337        C347   1.265       .  A
O338        V345   1.902       .  S
O338        C348   1.267       .  A
O339        V345   1.878       .  S
O339        C349   1.259       .  A
O340        V345   1.878       .  S
O340        C350   1.259       .  A
O341        V346   1.917       .  S
O341        C350   1.268       .  A
O342        V346   1.919       .  S
O342        C349   1.270       .  A
O343        V346   1.894       .  S
O343        C348   1.262       .  A
O344        V346   1.898       .  S
O344        C347   1.264       .  A
V345        V346   2.085       .  T
C347       C1326   1.482       .  S
C348        C669   1.483       .  S
C349        C645   1.485       .  S
C350        C630   1.472       .  S
O351        V359   1.901       .  S
O351        C361   1.265       .  A
O352        V359   1.904       .  S
O352        C362   1.266       .  A
O353        V359   1.874       .  S
O353        C363   1.260       .  A
O354        V359   1.879       .  S
O354        C364   1.260       .  A
O355        V360   1.904       .  S
O355        C364   1.265       .  A
O356        V360   1.904       .  S
O356        C363   1.266       .  A
O357        V360   1.897       .  S
O357        C362   1.264       .  A
O358        V360   1.901       .  S
O358        C361   1.265       .  A
V359        V360   2.086       .  T
C361       C1701   1.478       .  S
C362        C654   1.485       .  S
C363        C909   1.474       .  S
C364        C597   1.465       .  S
O365        V373   1.890       .  S
O365        C375   1.262       .  A
O366        V373   1.900       .  S
O366        C376   1.264       .  A
O367        V373   1.896       .  S
O367        C377   1.264       .  A
O368        V373   1.898       .  S
O368        C378   1.265       .  A
O369        V374   1.894       .  S
O369        C378   1.263       .  A
O370        V374   1.889       .  S
O370        C377   1.261       .  A
O371        V374   1.895       .  S
O371        C376   1.265       .  A
O372        V374   1.897       .  S
O372        C375   1.265       .  A
V373        V374   2.087       .  T
C375       C1902   1.478       .  S
C376        C573   1.479       .  S
C377        C846   1.467       .  S
C378        C678   1.478       .  S
O379        V387   1.884       .  S
O379        C389   1.261       .  A
O380        V387   1.890       .  S
O380        C390   1.262       .  A
O381        V387   1.892       .  S
O381        C391   1.263       .  A
O382        V387   1.893       .  S
O382        C392   1.264       .  A
O383        V388   1.897       .  S
O383        C392   1.263       .  A
O384        V388   1.902       .  S
O384        C391   1.264       .  A
O385        V388   1.899       .  S
O385        C390   1.265       .  A
O386        V388   1.908       .  S
O386        C389   1.267       .  A
V387        V388   2.088       .  T
C389       C1245   1.479       .  S
C390        C606   1.472       .  S
C391        C582   1.475       .  S
C392        C549   1.470       .  S
O393        V401   1.904       .  S
O393        C403   1.265       .  A
O394        V401   1.901       .  S
O394        C404   1.266       .  A
O395        V401   1.893       .  S
O395        C405   1.263       .  A
O396        V401   1.894       .  S
O396        C406   1.263       .  A
O397        V402   1.907       .  S
O397        C406   1.267       .  A
O398        V402   1.906       .  S
O398        C405   1.267       .  A
O399        V402   1.891       .  S
O399        C404   1.262       .  A
O400        V402   1.894       .  S
O400        C403   1.264       .  A
V401        V402   2.084       .  T
C403       C1062   1.485       .  S
C404        C525   1.481       .  S
C405        C621   1.487       .  S
C406        C501   1.486       .  S
O407        V415   1.910       .  S
O407        C417   1.268       .  A
O408        V415   1.910       .  S
O408        C418   1.268       .  A
O409        V415   1.897       .  S
O409        C419   1.264       .  A
O410        V415   1.901       .  S
O410        C420   1.264       .  A
O411        V416   1.891       .  S
O411        C420   1.263       .  A
O412        V416   1.893       .  S
O412        C419   1.263       .  A
O413        V416   1.898       .  S
O413        C418   1.264       .  A
O414        V416   1.903       .  S
O414        C417   1.266       .  A
V415        V416   2.085       .  T
C417       C1461   1.496       .  S
C418        C510   1.491   1_655  S
C419        C477   1.472       .  S
C420        C702   1.476       .  S
O421        V429   1.896       .  S
O421        C431   1.264       .  A
O422        V429   1.895       .  S
O422        C432   1.264       .  A
O423        V429   1.893       .  S
O423        C433   1.264       .  A
O424        V429   1.893       .  S
O424        C434   1.263       .  A
O425        V430   1.897       .  S
O425        C434   1.264       .  A
O426        V430   1.900       .  S
O426        C433   1.265       .  A
O427        V430   1.896       .  S
O427        C432   1.264       .  A
O428        V430   1.894       .  S
O428        C431   1.264       .  A
V429        V430   2.085       .  T
C431       C1566   1.481       .  S
C432        C453   1.480   1_455  S
C433        C534   1.481       .  S
C434        C750   1.474   1_554  S
O435        V443   1.901       .  S
O435        C445   1.266       .  A
O436        V443   1.899       .  S
O436        C446   1.265       .  A
O437        V443   1.891       .  S
O437        C447   1.263       .  A
O438        V443   1.890       .  S
O438        C448   1.263       .  A
O439        V444   1.899       .  S
O439        C448   1.264       .  A
O440        V444   1.897       .  S
O440        C447   1.265       .  A
O441        V444   1.891       .  S
O441        C446   1.263       .  A
O442        V444   1.896       .  S
O442        C445   1.264       .  A
V443        V444   2.085       .  T
C445       C1158   1.485       .  S
C446        C486   1.480       .  S
C447        C558   1.479       .  S
C448        C462   1.476       .  S
C449        C450   1.400       .  A
C449        C454   1.397       .  A
C449        H459   1.084       .  S
C450        C455   1.473       .  S
C450        C451   1.404       .  A
C451        C452   1.399       .  A
C451        O456   1.372       .  S
C452        C453   1.407       .  A
C452        H457   1.083       .  S
C453        C454   1.413       .  A
C454        O458   1.372       .  S
C455        C460   1.406       .  A
C455        C464   1.401       .  A
O456        H472   0.992       .  S
O458        H469   0.992       .  S
C460        C461   1.395       .  A
C460        O465   1.372       .  S
C461        C462   1.404       .  A
C461        H466   1.084       .  S
C462        C463   1.412       .  A
C463        C464   1.399       .  A
C463        O467   1.372       .  S
C464        H468   1.084       .  S
O465        H470   0.992       .  S
O467        H471   0.992       .  S
C473        C474   1.403       .  A
C473        C478   1.397       .  A
C473        H483   1.083       .  S
C474        C479   1.476       .  S
C474        C475   1.406       .  A
C475        C476   1.397       .  A
C475        O480   1.372       .  S
C476        C477   1.405       .  A
C476        H481   1.084       .  S
C477        C478   1.407       .  A
C478        O482   1.371       .  S
C479        C484   1.404       .  A
C479        C488   1.402       .  A
O480        H496   0.992       .  S
O482        H493   0.992       .  S
C484        C485   1.398       .  A
C484        O489   1.372       .  S
C485        C486   1.407       .  A
C485        H490   1.083       .  S
C486        C487   1.412       .  A
C487        C488   1.398       .  A
C487        O491   1.372       .  S
C488        H492   1.084       .  S
O489        H494   0.992       .  S
O491        H495   0.992       .  S
C497        C498   1.402       .  A
C497        C502   1.400       .  A
C497        H507   1.084       .  S
C498        C503   1.483       .  S
C498        C499   1.406       .  A
C499        C500   1.404       .  A
C499        O504   1.372       .  S
C500        C501   1.407       .  A
C500        H505   1.083       .  S
C501        C502   1.413       .  A
C502        O506   1.372       .  S
C503        C508   1.408       .  A
C503        C512   1.401       .  A
O504        H520   0.992       .  S
O506        H517   0.992       .  S
C508        C509   1.402       .  A
C508        O513   1.372       .  S
C509        C510   1.407       .  A
C509        H514   1.083       .  S
C510        C511   1.416       .  A
C511        C512   1.401       .  A
C511        O515   1.371   1_455  S
C512        H516   1.084       .  S
O513        H518   0.992       .  S
O515        H519   0.992       .  S
C521        C522   1.399       .  A
C521        C526   1.399       .  A
C521        H531   1.084       .  S
C522        C527   1.471       .  S
C522        C523   1.404       .  A
C523        C524   1.397       .  A
C523        O528   1.372       .  S
C524        C525   1.406       .  A
C524        H529   1.083       .  S
C525        C526   1.415       .  A
C526        O530   1.372       .  S
C527        C532   1.403       .  A
C527        C536   1.400       .  A
O528        H544   0.992       .  S
O530        H541   0.992       .  S
C532        C533   1.396       .  A
C532        O537   1.372       .  S
C533        C534   1.407       .  A
C533        H538   1.083       .  S
C534        C535   1.414       .  A
C535        C536   1.400       .  A
C535        O539   1.371       .  S
C536        H540   1.084       .  S
O537        H542   0.992       .  S
O539        H543   0.992       .  S
C545        C546   1.402       .  A
C545        C550   1.398       .  A
C545        H555   1.083       .  S
C546        C551   1.479       .  S
C546        C547   1.409       .  A
C547        C548   1.396       .  A
C547        O552   1.371       .  S
C548        C549   1.401       .  A
C548        H553   1.084       .  S
C549        C550   1.409       .  A
C550        O554   1.371       .  S
C551        C556   1.406       .  A
C551        C560   1.404       .  A
O552        H568   0.992       .  S
O554        H565   0.991       .  S
C556        C557   1.400       .  A
C556        O561   1.372       .  S
C557        C558   1.408       .  A
C557        H562   1.083       .  S
C558        C559   1.410       .  A
C559        C560   1.396       .  A
C559        O563   1.371       .  S
C560        H564   1.084       .  S
O561        H566   0.992       .  S
O563        H567   0.992       .  S
C569        C570   1.405       .  A
C569        C574   1.403       .  A
C569        H579   1.083       .  S
C570        C575   1.484       .  S
C570        C571   1.408       .  A
C571        C572   1.395       .  A
C571        O576   1.372       .  S
C572        C573   1.403       .  A
C572        H577   1.084       .  S
C573        C574   1.412       .  A
C574        O578   1.372       .  S
C575        C580   1.410       .  A
C575        C584   1.404       .  A
O576        H592   0.992       .  S
O578        H589   0.992       .  S
C580        C581   1.404       .  A
C580        O585   1.372       .  S
C581        C582   1.405       .  A
C581        H586   1.084       .  S
C582        C583   1.407       .  A
C583        C584   1.394       .  A
C583        O587   1.372       .  S
C584        H588   1.084       .  S
O585        H590   0.992       .  S
O587        H591   0.992       .  S
C593        C594   1.402       .  A
C593        C598   1.391       .  A
C593        H603   1.084       .  S
C594        C599   1.477       .  S
C594        C595   1.410       .  A
C595        C596   1.403       .  A
C595        O600   1.373       .  S
C596        C597   1.403       .  A
C596        H601   1.084       .  S
C597        C598   1.406       .  A
C598        O602   1.372       .  S
C599        C604   1.408       .  A
C599        C608   1.403       .  A
O600        H616   0.992       .  S
O602        H613   0.992       .  S
C604        C605   1.397       .  A
C604        O609   1.372       .  S
C605        C606   1.404       .  A
C605        H610   1.084       .  S
C606        C607   1.408       .  A
C607        C608   1.397       .  A
C607        O611   1.372       .  S
C608        H612   1.084       .  S
O609        H614   0.992       .  S
O611        H615   0.992       .  S
C617        C618   1.401       .  A
C617        C622   1.400       .  A
C617        H627   1.083       .  S
C618        C623   1.487       .  S
C618        C619   1.412       .  A
C619        C620   1.400       .  A
C619        O624   1.372       .  S
C620        C621   1.405       .  A
C620        H625   1.083       .  S
C621        C622   1.415       .  A
C622        O626   1.371       .  S
C623        C628   1.412       .  A
C623        C632   1.404       .  A
O624        H640   0.992       .  S
O626        H637   0.992       .  S
C628        C629   1.403       .  A
C628        O633   1.371       .  S
C629        C630   1.401       .  A
C629        H634   1.084       .  S
C630        C631   1.409       .  A
C631        C632   1.398       .  A
C631        O635   1.373       .  S
C632        H636   1.084       .  S
O633        H638   0.992       .  S
O635        H639   0.992       .  S
C641        C642   1.398       .  A
C641        C646   1.394       .  A
C641        H651   1.084       .  S
C642        C647   1.482       .  S
C642        C643   1.410       .  A
C643        C644   1.405       .  A
C643        O648   1.371       .  S
C644        C645   1.406       .  A
C644        H649   1.083       .  S
C645        C646   1.416       .  A
C646        O650   1.372       .  S
C647        C652   1.407       .  A
C647        C656   1.402       .  A
O648        H664   0.992       .  S
O650        H661   0.992       .  S
C652        C653   1.399       .  A
C652        O657   1.372       .  S
C653        C654   1.407       .  A
C653        H658   1.083       .  S
C654        C655   1.412       .  A
C655        C656   1.401       .  A
C655        O659   1.371       .  S
C656        H660   1.084       .  S
O657        H662   0.992       .  S
O659        H663   0.992       .  S
C665        C666   1.403       .  A
C665        C670   1.400       .  A
C665        H675   1.084       .  S
C666        C671   1.484       .  S
C666        C667   1.410       .  A
C667        C668   1.399       .  A
C667        O672   1.373       .  S
C668        C669   1.404       .  A
C668        H673   1.083       .  S
C669        C670   1.413       .  A
C670        O674   1.372       .  S
C671        C676   1.409       .  A
C671        C680   1.404       .  A
O672        H688   0.992       .  S
O674        H685   0.992       .  S
C676        C677   1.397       .  A
C676        O681   1.371       .  S
C677        C678   1.405       .  A
C677        H682   1.083       .  S
C678        C679   1.410       .  A
C679        C680   1.399       .  A
C679        O683   1.372       .  S
C680        H684   1.084       .  S
O681        H686   0.992       .  S
O683        H687   0.992       .  S
C689        C690   1.407       .  A
C689        C694   1.404       .  A
C689        H699   1.083       .  S
C690        C695   1.481       .  S
C690        C691   1.407   1_565  A
C691        C692   1.391       .  A
C691        O696   1.372       .  S
C692        C693   1.405       .  A
C692        H697   1.084       .  S
C693        C694   1.408   1_545  A
C694        O698   1.371       .  S
C695        C700   1.409       .  A
C695        C704   1.402   1_556  A
O696        H712   0.992   1_455  S
O698        H709   0.992       .  S
C700        C701   1.403   1_455  A
C700        O705   1.372       .  S
C701        C702   1.405   1_556  A
C701        H706   1.083       .  S
C702        C703   1.410       .  A
C703        C704   1.394   1_655  A
C703        O707   1.372       .  S
C704        H708   1.084       .  S
O705        H710   0.992       .  S
O707        H711   0.992   1_655  S
C713        C714   1.402       .  A
C713        C718   1.401       .  A
C713        H723   1.084       .  S
C714        C719   1.474       .  S
C714        C715   1.405       .  A
C715        C716   1.394       .  A
C715        O720   1.372       .  S
C716        C717   1.405       .  A
C716        H721   1.084       .  S
C717        C718   1.411       .  A
C718        O722   1.371       .  S
C719        C724   1.406       .  A
C719        C728   1.399   1_655  A
O720        H736   0.992       .  S
O722        H733   0.992       .  S
C724        C725   1.399   1_655  A
C724        O729   1.372       .  S
C725        C726   1.405       .  A
C725        H730   1.083       .  S
C726        C727   1.414       .  A
C727        C728   1.396       .  A
C727        O731   1.372       .  S
C728        H732   1.084   1_455  S
O729        H734   0.992       .  S
O731        H735   0.992       .  S
C737        C738   1.402       .  A
C737        C742   1.394       .  A
C737        H747   1.084       .  S
C738        C743   1.476       .  S
C738        C739   1.407       .  A
C739        C740   1.401       .  A
C739        O744   1.372       .  S
C740        C741   1.404       .  A
C740        H745   1.084       .  S
C741        C742   1.408       .  A
C742        O746   1.372       .  S
C743        C748   1.405       .  A
C743        C752   1.404   1_655  A
O744        H760   0.992       .  S
O746        H757   0.992       .  S
C748        C749   1.398       .  A
C748        O753   1.372       .  S
C749        C750   1.405   1_655  A
C749        H754   1.084       .  S
C750        C751   1.409       .  A
C751        C752   1.398       .  A
C751        O755   1.372       .  S
C752        H756   1.084       .  S
O753        H758   0.992       .  S
O755        H759   0.992   1_556  S
C761        C762   1.398       .  A
C761        C766   1.393       .  A
C761        H771   1.084       .  S
C762        C767   1.465       .  S
C762        C763   1.404       .  A
C763        C764   1.398       .  A
C763        O768   1.372       .  S
C764        C765   1.404       .  A
C764        H769   1.083       .  S
C765        C766   1.411       .  A
C766        O770   1.372       .  S
C767        C772   1.406       .  A
C767        C776   1.397       .  A
O768        H784   0.992       .  S
O770        H781   0.992       .  S
C772        C773   1.395       .  A
C772        O777   1.372       .  S
C773        C774   1.402       .  A
C773        H778   1.084       .  S
C774        C775   1.412       .  A
C775        C776   1.397       .  A
C775        O779   1.372       .  S
C776        H780   1.084       .  S
O777        H782   0.992       .  S
O779        H783   0.992       .  S
C785        C786   1.404       .  A
C785        C790   1.402       .  A
C785        H795   1.083       .  S
C786        C791   1.487   1_455  S
C786        C787   1.409       .  A
C787        C788   1.401       .  A
C787        O792   1.372   1_455  S
C788        C789   1.405       .  A
C788        H793   1.083       .  S
C789        C790   1.413       .  A
C790        O794   1.372       .  S
C791        C796   1.409       .  A
C791        C800   1.403       .  A
O792        H808   0.992       .  S
O794        H805   0.992       .  S
C796        C797   1.403       .  A
C796        O801   1.372   1_655  S
C797        C798   1.406       .  A
C797        H802   1.083       .  S
C798        C799   1.414       .  A
C799        C800   1.401       .  A
C799        O803   1.371       .  S
C800        H804   1.084       .  S
O801        H806   0.992       .  S
O803        H807   0.992       .  S
C809        C810   1.402       .  A
C809        C814   1.405       .  A
C809        H819   1.083       .  S
C810        C815   1.471       .  S
C810        C811   1.402       .  A
C811        C812   1.391       .  A
C811        O816   1.373       .  S
C812        C813   1.406       .  A
C812        H817   1.083       .  S
C813        C814   1.414       .  A
C814        O818   1.371       .  S
C815        C820   1.403       .  A
C815        C824   1.401       .  A
O816        H832   0.992       .  S
O818        H829   0.992       .  S
C820        C821   1.394       .  A
C820        O825   1.373       .  S
C821        C822   1.404       .  A
C821        H826   1.084       .  S
C822        C823   1.412       .  A
C823        C824   1.402       .  A
C823        O827   1.371       .  S
C824        H828   1.084       .  S
O825        H830   0.992       .  S
O827        H831   0.992       .  S
C833        C834   1.400   1_545  A
C833        C838   1.398       .  A
C833        H843   1.084       .  S
C834        C839   1.473       .  S
C834        C835   1.407       .  A
C835        C836   1.396       .  A
C835        O840   1.373       .  S
C836        C837   1.403   1_565  A
C836        H841   1.083       .  S
C837        C838   1.414       .  A
C838        O842   1.372       .  S
C839        C844   1.408       .  A
C839        C848   1.400       .  A
O840        H856   0.992       .  S
O842        H853   0.992       .  S
C844        C845   1.398       .  A
C844        O849   1.374       .  S
C845        C846   1.401       .  A
C845        H850   1.084       .  S
C846        C847   1.410       .  A
C847        C848   1.396       .  A
C847        O851   1.372       .  S
C848        H852   1.084       .  S
O849        H854   0.992       .  S
O851        H855   0.992       .  S
C857        C858   1.402       .  A
C857        C862   1.403       .  A
C857        H867   1.084       .  S
C858        C863   1.481       .  S
C858        C859   1.408       .  A
C859        C860   1.397       .  A
C859        O864   1.372       .  S
C860        C861   1.402       .  A
C860        H865   1.084       .  S
C861        C862   1.415       .  A
C862        O866   1.372       .  S
C863        C868   1.406       .  A
C863        C872   1.402       .  A
O864        H880   0.992       .  S
O866        H877   0.992       .  S
C868        C869   1.403       .  A
C868        O873   1.371       .  S
C869        C870   1.409       .  A
C869        H874   1.083       .  S
C870        C871   1.411       .  A
C871        C872   1.399       .  A
C871        O875   1.372       .  S
C872        H876   1.084       .  S
O873        H878   0.992       .  S
O875        H879   0.992       .  S
C881        C882   1.398       .  A
C881        C886   1.398       .  A
C881        H891   1.084       .  S
C882        C887   1.468       .  S
C882        C883   1.405       .  A
C883        C884   1.397       .  A
C883        O888   1.372       .  S
C884        C885   1.405       .  A
C884        H889   1.083       .  S
C885        C886   1.413       .  A
C886        O890   1.372       .  S
C887        C892   1.403       .  A
C887        C896   1.398       .  A
O888        H904   0.992       .  S
O890        H901   0.992       .  S
C892        C893   1.401       .  A
C892        O897   1.371       .  S
C893        C894   1.408       .  A
C893        H898   1.083       .  S
C894        C895   1.412       .  A
C895        C896   1.394       .  A
C895        O899   1.372       .  S
C896        H900   1.084       .  S
O897        H902   0.992       .  S
O899        H903   0.992       .  S
C905        C906   1.403       .  A
C905        C910   1.400       .  A
C905        H915   1.083       .  S
C906        C911   1.470       .  S
C906        C907   1.404       .  A
C907        C908   1.388       .  A
C907        O912   1.373       .  S
C908        C909   1.406       .  A
C908        H913   1.083       .  S
C909        C910   1.411       .  A
C910        O914   1.371       .  S
C911        C916   1.408       .  A
C911        C920   1.401       .  A
O912        H928   0.992       .  S
O914        H925   0.992       .  S
C916        C917   1.398       .  A
C916        O921   1.372       .  S
C917        C918   1.400       .  A
C917        H922   1.084       .  S
C918        C919   1.406       .  A
C919        C920   1.391       .  A
C919        O923   1.373       .  S
C920        H924   1.084       .  S
O921        H926   0.992       .  S
O923        H927   0.992       .  S
C929        C930   1.399       .  A
C929        C934   1.396       .  A
C929        H939   1.084       .  S
C930        C935   1.466       .  S
C930        C931   1.404       .  A
C931        C932   1.394       .  A
C931        O936   1.372       .  S
C932        C933   1.406       .  A
C932        H937   1.084       .  S
C933        C934   1.411       .  A
C934        O938   1.372       .  S
C935        C940   1.405       .  A
C935        C944   1.397       .  A
O936        H952   0.992       .  S
O938        H949   0.992       .  S
C940        C941   1.394       .  A
C940        O945   1.372       .  S
C941        C942   1.404       .  A
C941        H946   1.083       .  S
C942        C943   1.415       .  A
C943        C944   1.396       .  A
C943        O947   1.371       .  S
C944        H948   1.084       .  S
O945        H950   0.992       .  S
O947        H951   0.992       .  S
C953        C954   1.405       .  A
C953        C958   1.397       .  A
C953        H963   1.083       .  S
C954        C959   1.482       .  S
C954        C955   1.407       .  A
C955        C956   1.400       .  A
C955        O960   1.372       .  S
C956        C957   1.407       .  A
C956        H961   1.083       .  S
C957        C958   1.409       .  A
C958        O962   1.371       .  S
C959        C964   1.408       .  A
C959        C968   1.405       .  A
O960        H976   0.992       .  S
O962        H973   0.992       .  S
C964        C965   1.396       .  A
C964        O969   1.373       .  S
C965        C966   1.403       .  A
C965        H970   1.084       .  S
C966        C967   1.409       .  A
C967        C968   1.401       .  A
C967        O971   1.371       .  S
C968        H972   1.083       .  S
O969        H974   0.992       .  S
O971        H975   0.992       .  S
C977        C978   1.401       .  A
C977        C982   1.400       .  A
C977        H987   1.084       .  S
C978        C983   1.473       .  S
C978        C979   1.403       .  A
C979        C980   1.399       .  A
C979        O984   1.372       .  S
C980        C981   1.408       .  A
C980        H985   1.083       .  S
C981        C982   1.411       .  A
C982        O986   1.371       .  S
C983        C988   1.404       .  A
C983        C992   1.401       .  A
O984       H1000   0.992       .  S
O986        H997   0.992       .  S
C988        C989   1.395       .  A
C988        O993   1.372       .  S
C989        C990   1.406       .  A
C989        H994   1.083       .  S
C990        C991   1.415       .  A
C991        C992   1.403       .  A
C991        O995   1.372       .  S
C992        H996   1.084       .  S
O993        H998   0.992       .  S
O995        H999   0.992       .  S
C1001      C1002   1.401       .  A
C1001      C1006   1.400       .  A
C1001      H1011   1.084       .  S
C1002      C1007   1.475       .  S
C1002      C1003   1.404       .  A
C1003      C1004   1.401       .  A
C1003      O1008   1.371       .  S
C1004      C1005   1.409       .  A
C1004      H1009   1.083       .  S
C1005      C1006   1.413       .  A
C1006      O1010   1.371       .  S
C1007      C1012   1.405       .  A
C1007      C1016   1.400       .  A
O1008      H1024   0.992       .  S
O1010      H1021   0.992       .  S
C1012      C1013   1.402       .  A
C1012      O1017   1.371       .  S
C1013      C1014   1.407       .  A
C1013      H1018   1.083       .  S
C1014      C1015   1.412       .  A
C1015      C1016   1.397       .  A
C1015      O1019   1.372       .  S
C1016      H1020   1.084       .  S
O1017      H1022   0.992       .  S
O1019      H1023   0.992       .  S
C1025      C1026   1.399       .  A
C1025      C1030   1.398       .  A
C1025      H1035   1.084       .  S
C1026      C1031   1.470       .  S
C1026      C1027   1.404       .  A
C1027      C1028   1.397       .  A
C1027      O1032   1.372       .  S
C1028      C1029   1.406       .  A
C1028      H1033   1.083       .  S
C1029      C1030   1.412       .  A
C1030      O1034   1.371       .  S
C1031      C1036   1.403       .  A
C1031      C1040   1.400       .  A
O1032      H1048   0.992       .  S
O1034      H1045   0.992       .  S
C1036      C1037   1.395       .  A
C1036      O1041   1.372       .  S
C1037      C1038   1.407       .  A
C1037      H1042   1.083       .  S
C1038      C1039   1.413       .  A
C1039      C1040   1.399       .  A
C1039      O1043   1.371       .  S
C1040      H1044   1.084       .  S
O1041      H1046   0.992       .  S
O1043      H1047   0.992       .  S
C1049      C1050   1.401       .  A
C1049      C1054   1.397       .  A
C1049      H1059   1.084       .  S
C1050      C1055   1.478       .  S
C1050      C1051   1.406       .  A
C1051      C1052   1.400       .  A
C1051      O1056   1.372       .  S
C1052      C1053   1.407       .  A
C1052      H1057   1.083       .  S
C1053      C1054   1.413       .  A
C1054      O1058   1.371       .  S
C1055      C1060   1.405       .  A
C1055      C1064   1.402       .  A
O1056      H1072   0.992       .  S
O1058      H1069   0.992       .  S
C1060      C1061   1.395       .  A
C1060      O1065   1.372       .  S
C1061      C1062   1.406       .  A
C1061      H1066   1.083       .  S
C1062      C1063   1.414       .  A
C1063      C1064   1.404       .  A
C1063      O1067   1.371       .  S
C1064      H1068   1.084       .  S
O1065      H1070   0.992       .  S
O1067      H1071   0.992       .  S
C1073      C1074   1.405       .  A
C1073      C1078   1.398   1_455  A
C1073      H1083   1.084       .  S
C1074      C1079   1.476       .  S
C1074      C1075   1.405   1_455  A
C1075      C1076   1.397       .  A
C1075      O1080   1.374   1_545  S
C1076      C1077   1.405       .  A
C1076      H1081   1.084       .  S
C1077      C1078   1.407       .  A
C1078      O1082   1.371       .  S
C1079      C1084   1.408       .  A
C1079      C1088   1.403       .  A
O1080      H1096   0.992       .  S
O1082      H1093   0.992       .  S
C1084      C1085   1.395       .  A
C1084      O1089   1.373   1_455  S
C1085      C1086   1.402       .  A
C1085      H1090   1.084       .  S
C1086      C1087   1.410       .  A
C1087      C1088   1.400       .  A
C1087      O1091   1.372       .  S
C1088      H1092   1.084       .  S
O1089      H1094   0.992       .  S
O1091      H1095   0.992       .  S
C1097      C1098   1.401       .  A
C1097      C1102   1.401       .  A
C1097      H1107   1.084       .  S
C1098      C1103   1.472       .  S
C1098      C1099   1.402       .  A
C1099      C1100   1.396       .  A
C1099      O1104   1.372       .  S
C1100      C1101   1.407       .  A
C1100      H1105   1.083       .  S
C1101      C1102   1.414       .  A
C1102      O1106   1.371       .  S
C1103      C1108   1.404       .  A
C1103      C1112   1.400       .  A
O1104      H1120   0.992       .  S
O1106      H1117   0.992       .  S
C1108      C1109   1.396       .  A
C1108      O1113   1.372       .  S
C1109      C1110   1.407       .  A
C1109      H1114   1.083       .  S
C1110      C1111   1.414       .  A
C1111      C1112   1.401       .  A
C1111      O1115   1.371       .  S
C1112      H1116   1.084       .  S
O1113      H1118   0.992       .  S
O1115      H1119   0.992       .  S
C1121      C1122   1.398       .  A
C1121      C1126   1.398       .  A
C1121      H1131   1.084       .  S
C1122      C1127   1.468       .  S
C1122      C1123   1.404       .  A
C1123      C1124   1.397       .  A
C1123      O1128   1.372       .  S
C1124      C1125   1.405       .  A
C1124      H1129   1.083       .  S
C1125      C1126   1.413       .  A
C1126      O1130   1.372       .  S
C1127      C1132   1.403       .  A
C1127      C1136   1.399       .  A
O1128      H1144   0.992       .  S
O1130      H1141   0.992       .  S
C1132      C1133   1.395       .  A
C1132      O1137   1.372       .  S
C1133      C1134   1.407       .  A
C1133      H1138   1.083       .  S
C1134      C1135   1.413       .  A
C1135      C1136   1.399       .  A
C1135      O1139   1.371       .  S
C1136      H1140   1.084       .  S
O1137      H1142   0.992       .  S
O1139      H1143   0.992       .  S
C1145      C1146   1.403       .  A
C1145      C1150   1.401       .  A
C1145      H1155   1.083       .  S
C1146      C1151   1.482       .  S
C1146      C1147   1.407       .  A
C1147      C1148   1.398       .  A
C1147      O1152   1.372       .  S
C1148      C1149   1.406       .  A
C1148      H1153   1.083       .  S
C1149      C1150   1.412       .  A
C1150      O1154   1.371       .  S
C1151      C1156   1.407       .  A
C1151      C1160   1.402       .  A
O1152      H1168   0.992       .  S
O1154      H1165   0.992       .  S
C1156      C1157   1.400       .  A
C1156      O1161   1.372       .  S
C1157      C1158   1.406       .  A
C1157      H1162   1.083       .  S
C1158      C1159   1.414       .  A
C1159      C1160   1.400       .  A
C1159      O1163   1.371       .  S
C1160      H1164   1.084       .  S
O1161      H1166   0.992       .  S
O1163      H1167   0.992       .  S
C1169      C1170   1.403       .  A
C1169      C1174   1.403       .  A
C1169      H1179   1.084       .  S
C1170      C1175   1.477       .  S
C1170      C1171   1.406       .  A
C1171      C1172   1.395       .  A
C1171      O1176   1.373       .  S
C1172      C1173   1.404       .  A
C1172      H1177   1.084       .  S
C1173      C1174   1.412       .  A
C1174      O1178   1.371       .  S
C1175      C1180   1.405       .  A
C1175      C1184   1.404       .  A
O1176      H1192   0.992       .  S
O1178      H1189   0.992       .  S
C1180      C1181   1.395   1_655  A
C1180      O1185   1.372       .  S
C1181      C1182   1.406       .  A
C1181      H1186   1.084       .  S
C1182      C1183   1.409       .  A
C1183      C1184   1.402   1_455  A
C1183      O1187   1.371       .  S
C1184      H1188   1.084       .  S
O1185      H1190   0.992       .  S
O1187      H1191   0.992   1_455  S
C1193      C1194   1.402       .  A
C1193      C1198   1.399       .  A
C1193      H1203   1.084       .  S
C1194      C1199   1.476       .  S
C1194      C1195   1.406       .  A
C1195      C1196   1.396       .  A
C1195      O1200   1.372       .  S
C1196      C1197   1.407       .  A
C1196      H1201   1.083       .  S
C1197      C1198   1.412       .  A
C1198      O1202   1.371       .  S
C1199      C1204   1.406       .  A
C1199      C1208   1.400       .  A
O1200      H1216   0.992       .  S
O1202      H1213   0.992       .  S
C1204      C1205   1.400       .  A
C1204      O1209   1.372       .  S
C1205      C1206   1.406       .  A
C1205      H1210   1.083       .  S
C1206      C1207   1.414       .  A
C1207      C1208   1.397       .  A
C1207      O1211   1.372       .  S
C1208      H1212   1.084       .  S
O1209      H1214   0.992       .  S
O1211      H1215   0.992       .  S
C1217      C1218   1.402       .  A
C1217      C1222   1.401       .  A
C1217      H1227   1.083       .  S
C1218      C1223   1.484       .  S
C1218      C1219   1.409       .  A
C1219      C1220   1.401       .  A
C1219      O1224   1.372       .  S
C1220      C1221   1.405       .  A
C1220      H1225   1.083       .  S
C1221      C1222   1.413       .  A
C1222      O1226   1.372       .  S
C1223      C1228   1.409       .  A
C1223      C1232   1.404       .  A
O1224      H1240   0.992       .  S
O1226      H1237   0.992       .  S
C1228      C1229   1.401       .  A
C1228      O1233   1.372       .  S
C1229      C1230   1.404       .  A
C1229      H1234   1.084       .  S
C1230      C1231   1.411       .  A
C1231      C1232   1.401       .  A
C1231      O1235   1.372   1_556  S
C1232      H1236   1.084       .  S
O1233      H1238   0.992       .  S
O1235      H1239   0.992       .  S
C1241      C1242   1.401       .  A
C1241      C1246   1.395       .  A
C1241      H1251   1.084       .  S
C1242      C1247   1.480       .  S
C1242      C1243   1.409       .  A
C1243      C1244   1.403       .  A
C1243      O1248   1.373       .  S
C1244      C1245   1.404       .  A
C1244      H1249   1.083       .  S
C1245      C1246   1.413       .  A
C1246      O1250   1.372       .  S
C1247      C1252   1.407   1_565  A
C1247      C1256   1.403   1_565  A
O1248      H1264   0.992       .  S
O1250      H1261   0.992       .  S
C1252      C1253   1.399       .  A
C1252      O1257   1.373   1_545  S
C1253      C1254   1.405       .  A
C1253      H1258   1.083       .  S
C1254      C1255   1.412       .  A
C1255      C1256   1.399       .  A
C1255      O1259   1.372       .  S
C1256      H1260   1.084       .  S
O1257      H1262   0.992       .  S
O1259      H1263   0.992       .  S
C1265      C1266   1.405       .  A
C1265      C1270   1.397       .  A
C1265      H1275   1.083       .  S
C1266      C1271   1.489       .  S
C1266      C1267   1.413       .  A
C1267      C1268   1.400       .  A
C1267      O1272   1.371       .  S
C1268      C1269   1.402       .  A
C1268      H1273   1.084       .  S
C1269      C1270   1.409       .  A
C1270      O1274   1.372       .  S
C1271      C1276   1.410       .  A
C1271      C1280   1.407       .  A
O1272      H1288   0.992       .  S
O1274      H1285   0.992       .  S
C1276      C1277   1.396       .  A
C1276      O1281   1.372       .  S
C1277      C1278   1.406       .  A
C1277      H1282   1.083       .  S
C1278      C1279   1.410       .  A
C1279      C1280   1.401       .  A
C1279      O1283   1.371       .  S
C1280      H1284   1.083       .  S
O1281      H1286   0.992       .  S
O1283      H1287   0.991       .  S
C1289      C1290   1.402       .  A
C1289      C1294   1.397       .  A
C1289      H1299   1.084       .  S
C1290      C1295   1.475       .  S
C1290      C1291   1.404       .  A
C1291      C1292   1.400       .  A
C1291      O1296   1.371       .  S
C1292      C1293   1.408       .  A
C1292      H1297   1.083       .  S
C1293      C1294   1.410       .  A
C1294      O1298   1.372       .  S
C1295      C1300   1.404       .  A
C1295      C1304   1.401       .  A
O1296      H1312   0.992   1_545  S
O1298      H1309   0.992       .  S
C1300      C1301   1.397       .  A
C1300      O1305   1.371       .  S
C1301      C1302   1.407       .  A
C1301      H1306   1.083       .  S
C1302      C1303   1.413       .  A
C1303      C1304   1.401       .  A
C1303      O1307   1.372       .  S
C1304      H1308   1.084       .  S
O1305      H1310   0.992       .  S
O1307      H1311   0.992       .  S
C1313      C1314   1.401       .  A
C1313      C1318   1.403       .  A
C1313      H1323   1.084       .  S
C1314      C1319   1.473       .  S
C1314      C1315   1.402       .  A
C1315      C1316   1.395       .  A
C1315      O1320   1.372       .  S
C1316      C1317   1.408       .  A
C1316      H1321   1.083       .  S
C1317      C1318   1.413       .  A
C1318      O1322   1.371       .  S
C1319      C1324   1.404       .  A
C1319      C1328   1.399       .  A
O1320      H1336   0.992       .  S
O1322      H1333   0.992       .  S
C1324      C1325   1.400       .  A
C1324      O1329   1.372       .  S
C1325      C1326   1.408       .  A
C1325      H1330   1.083       .  S
C1326      C1327   1.413       .  A
C1327      C1328   1.397       .  A
C1327      O1331   1.371       .  S
C1328      H1332   1.084       .  S
O1329      H1334   0.992       .  S
O1331      H1335   0.992       .  S
C1337      C1338   1.404       .  A
C1337      C1342   1.403       .  A
C1337      H1347   1.083       .  S
C1338      C1343   1.479       .  S
C1338      C1339   1.406       .  A
C1339      C1340   1.394       .  A
C1339      O1344   1.372       .  S
C1340      C1341   1.405       .  A
C1340      H1345   1.083       .  S
C1341      C1342   1.412       .  A
C1342      O1346   1.371       .  S
C1343      C1348   1.409       .  A
C1343      C1352   1.402       .  A
O1344      H1360   0.992       .  S
O1346      H1357   0.992       .  S
C1348      C1349   1.403       .  A
C1348      O1353   1.372       .  S
C1349      C1350   1.403       .  A
C1349      H1354   1.084       .  S
C1350      C1351   1.407       .  A
C1351      C1352   1.395       .  A
C1351      O1355   1.372       .  S
C1352      H1356   1.084       .  S
O1353      H1358   0.992       .  S
O1355      H1359   0.992       .  S
C1361      C1362   1.401       .  A
C1361      C1366   1.397       .  A
C1361      H1371   1.084       .  S
C1362      C1367   1.483       .  S
C1362      C1363   1.410       .  A
C1363      C1364   1.402       .  A
C1363      O1368   1.372       .  S
C1364      C1365   1.404       .  A
C1364      H1369   1.083       .  S
C1365      C1366   1.414       .  A
C1366      O1370   1.372       .  S
C1367      C1372   1.409       .  A
C1367      C1376   1.404       .  A
O1368      H1384   0.992       .  S
O1370      H1381   0.992       .  S
C1372      C1373   1.401       .  A
C1372      O1377   1.371       .  S
C1373      C1374   1.405       .  A
C1373      H1378   1.084       .  S
C1374      C1375   1.407       .  A
C1375      C1376   1.398       .  A
C1375      O1379   1.372       .  S
C1376      H1380   1.084       .  S
O1377      H1382   0.992       .  S
O1379      H1383   0.992       .  S
C1385      C1386   1.402       .  A
C1385      C1390   1.401   1_556  A
C1385      H1395   1.084       .  S
C1386      C1391   1.487       .  S
C1386      C1387   1.409       .  A
C1387      C1388   1.403       .  A
C1387      O1392   1.371       .  S
C1388      C1389   1.407   1_556  A
C1388      H1393   1.083       .  S
C1389      C1390   1.415       .  A
C1390      O1394   1.372       .  S
C1391      C1396   1.408       .  A
C1391      C1400   1.403       .  A
O1392      H1408   0.992       .  S
O1394      H1405   0.992       .  S
C1396      C1397   1.403       .  A
C1396      O1401   1.372       .  S
C1397      C1398   1.407       .  A
C1397      H1402   1.083       .  S
C1398      C1399   1.415       .  A
C1399      C1400   1.402       .  A
C1399      O1403   1.371       .  S
C1400      H1404   1.084       .  S
O1401      H1406   0.992       .  S
O1403      H1407   0.992       .  S
C1409      C1410   1.400       .  A
C1409      C1414   1.396       .  A
C1409      H1419   1.084       .  S
C1410      C1415   1.475       .  S
C1410      C1411   1.405       .  A
C1411      C1412   1.401       .  A
C1411      O1416   1.372       .  S
C1412      C1413   1.407       .  A
C1412      H1417   1.083       .  S
C1413      C1414   1.413       .  A
C1414      O1418   1.372       .  S
C1415      C1420   1.406       .  A
C1415      C1424   1.400       .  A
O1416      H1432   0.992       .  S
O1418      H1429   0.992       .  S
C1420      C1421   1.398       .  A
C1420      O1425   1.372       .  S
C1421      C1422   1.406       .  A
C1421      H1426   1.083       .  S
C1422      C1423   1.413       .  A
C1423      C1424   1.399       .  A
C1423      O1427   1.372       .  S
C1424      H1428   1.084       .  S
O1425      H1430   0.992       .  S
O1427      H1431   0.992       .  S
C1433      C1434   1.399       .  A
C1433      C1438   1.395       .  A
C1433      H1443   1.084       .  S
C1434      C1439   1.477       .  S
C1434      C1435   1.406       .  A
C1435      C1436   1.405       .  A
C1435      O1440   1.372       .  S
C1436      C1437   1.408       .  A
C1436      H1441   1.083       .  S
C1437      C1438   1.414       .  A
C1438      O1442   1.372       .  S
C1439      C1444   1.404       .  A
C1439      C1448   1.403       .  A
O1440      H1456   0.992       .  S
O1442      H1453   0.992       .  S
C1444      C1445   1.401       .  A
C1444      O1449   1.372       .  S
C1445      C1446   1.408       .  A
C1445      H1450   1.083       .  S
C1446      C1447   1.411       .  A
C1447      C1448   1.399       .  A
C1447      O1451   1.372       .  S
C1448      H1452   1.084       .  S
O1449      H1454   0.992       .  S
O1451      H1455   0.992       .  S
C1457      C1458   1.403       .  A
C1457      C1462   1.404   1_556  A
C1457      H1467   1.084       .  S
C1458      C1463   1.492       .  S
C1458      C1459   1.409       .  A
C1459      C1460   1.407       .  A
C1459      O1464   1.372       .  S
C1460      C1461   1.409   1_556  A
C1460      H1465   1.083       .  S
C1461      C1462   1.415       .  A
C1462      O1466   1.371       .  S
C1463      C1468   1.409       .  A
C1463      C1472   1.404       .  A
O1464      H1480   0.992       .  S
O1466      H1477   0.992       .  S
C1468      C1469   1.404       .  A
C1468      O1473   1.371       .  S
C1469      C1470   1.408       .  A
C1469      H1474   1.083       .  S
C1470      C1471   1.414       .  A
C1471      C1472   1.406       .  A
C1471      O1475   1.371       .  S
C1472      H1476   1.084       .  S
O1473      H1478   0.992       .  S
O1475      H1479   0.992       .  S
C1481      C1482   1.404       .  A
C1481      C1486   1.399       .  A
C1481      H1491   1.083       .  S
C1482      C1487   1.489       .  S
C1482      C1483   1.411       .  A
C1483      C1484   1.404       .  A
C1483      O1488   1.372   1_565  S
C1484      C1485   1.406       .  A
C1484      H1489   1.084       .  S
C1485      C1486   1.411       .  A
C1486      O1490   1.372       .  S
C1487      C1492   1.410       .  A
C1487      C1496   1.403   1_565  A
O1488      H1504   0.992   1_545  S
O1490      H1501   0.992       .  S
C1492      C1493   1.401       .  A
C1492      O1497   1.373       .  S
C1493      C1494   1.405   1_565  A
C1493      H1498   1.083       .  S
C1494      C1495   1.415       .  A
C1495      C1496   1.403       .  A
C1495      O1499   1.372       .  S
C1496      H1500   1.083       .  S
O1497      H1502   0.992       .  S
O1499      H1503   0.992   1_556  S
C1505      C1506   1.400       .  A
C1505      C1510   1.398       .  A
C1505      H1515   1.084   1_565  S
C1506      C1511   1.478   1_565  S
C1506      C1507   1.406       .  A
C1507      C1508   1.400       .  A
C1507      O1512   1.372       .  S
C1508      C1509   1.407       .  A
C1508      H1513   1.083       .  S
C1509      C1510   1.414       .  A
C1510      O1514   1.371       .  S
C1511      C1516   1.406       .  A
C1511      C1520   1.402       .  A
O1512      H1528   0.992       .  S
O1514      H1525   0.992       .  S
C1516      C1517   1.397       .  A
C1516      O1521   1.372       .  S
C1517      C1518   1.406       .  A
C1517      H1522   1.084       .  S
C1518      C1519   1.412       .  A
C1519      C1520   1.401       .  A
C1519      O1523   1.371       .  S
C1520      H1524   1.084       .  S
O1521      H1526   0.992   1_545  S
O1523      H1527   0.992       .  S
C1529      C1530   1.401       .  A
C1529      C1534   1.396       .  A
C1529      H1539   1.084       .  S
C1530      C1535   1.479       .  S
C1530      C1531   1.408       .  A
C1531      C1532   1.405       .  A
C1531      O1536   1.372       .  S
C1532      C1533   1.405       .  A
C1532      H1537   1.084       .  S
C1533      C1534   1.410       .  A
C1534      O1538   1.372       .  S
C1535      C1540   1.407       .  A
C1535      C1544   1.401       .  A
O1536      H1552   0.992       .  S
O1538      H1549   0.992       .  S
C1540      C1541   1.401       .  A
C1540      O1545   1.372       .  S
C1541      C1542   1.405       .  A
C1541      H1546   1.083       .  S
C1542      C1543   1.413       .  A
C1543      C1544   1.400       .  A
C1543      O1547   1.372       .  S
C1544      H1548   1.084       .  S
O1545      H1550   0.992       .  S
O1547      H1551   0.992       .  S
C1553      C1554   1.402       .  A
C1553      C1558   1.397       .  A
C1553      H1563   1.084       .  S
C1554      C1559   1.477       .  S
C1554      C1555   1.407       .  A
C1555      C1556   1.399       .  A
C1555      O1560   1.372       .  S
C1556      C1557   1.405       .  A
C1556      H1561   1.083       .  S
C1557      C1558   1.411       .  A
C1558      O1562   1.372       .  S
C1559      C1564   1.407       .  A
C1559      C1568   1.401       .  A
O1560      H1576   0.992       .  S
O1562      H1573   0.992       .  S
C1564      C1565   1.398       .  A
C1564      O1569   1.371       .  S
C1565      C1566   1.407   1_556  A
C1565      H1570   1.083       .  S
C1566      C1567   1.413       .  A
C1567      C1568   1.397   1_554  A
C1567      O1571   1.372       .  S
C1568      H1572   1.084       .  S
O1569      H1574   0.992       .  S
O1571      H1575   0.992       .  S
C1577      C1578   1.404       .  A
C1577      C1582   1.399       .  A
C1577      H1587   1.084       .  S
C1578      C1583   1.477       .  S
C1578      C1579   1.405       .  A
C1579      C1580   1.397       .  A
C1579      O1584   1.372       .  S
C1580      C1581   1.407   1_556  A
C1580      H1585   1.084       .  S
C1581      C1582   1.409   1_554  A
C1582      O1586   1.372   1_556  S
C1583      C1588   1.407       .  A
C1583      C1592   1.403       .  A
O1584      H1600   0.992       .  S
O1586      H1597   0.992       .  S
C1588      C1589   1.395       .  A
C1588      O1593   1.372       .  S
C1589      C1590   1.404       .  A
C1589      H1594   1.084       .  S
C1590      C1591   1.411       .  A
C1591      C1592   1.400       .  A
C1591      O1595   1.371       .  S
C1592      H1596   1.084       .  S
O1593      H1598   0.992   1_556  S
O1595      H1599   0.992       .  S
C1601      C1602   1.401       .  A
C1601      C1606   1.395       .  A
C1601      H1611   1.083       .  S
C1602      C1607   1.481       .  S
C1602      C1603   1.408       .  A
C1603      C1604   1.402       .  A
C1603      O1608   1.371       .  S
C1604      C1605   1.407       .  A
C1604      H1609   1.083       .  S
C1605      C1606   1.412       .  A
C1606      O1610   1.372       .  S
C1607      C1612   1.406       .  A
C1607      C1616   1.403       .  A
O1608      H1624   0.992       .  S
O1610      H1621   0.992       .  S
C1612      C1613   1.398       .  A
C1612      O1617   1.373       .  S
C1613      C1614   1.407       .  A
C1613      H1618   1.083       .  S
C1614      C1615   1.412       .  A
C1615      C1616   1.400       .  A
C1615      O1619   1.371       .  S
C1616      H1620   1.084       .  S
O1617      H1622   0.992       .  S
O1619      H1623   0.992       .  S
C1625      C1626   1.404       .  A
C1625      C1630   1.402       .  A
C1625      H1635   1.084       .  S
C1626      C1631   1.496       .  S
C1626      C1627   1.411       .  A
C1627      C1628   1.407       .  A
C1627      O1632   1.371       .  S
C1628      C1629   1.409       .  A
C1628      H1633   1.083       .  S
C1629      C1630   1.415       .  A
C1630      O1634   1.371       .  S
C1631      C1636   1.410       .  A
C1631      C1640   1.407       .  A
O1632      H1648   0.992       .  S
O1634      H1645   0.992       .  S
C1636      C1637   1.402       .  A
C1636      O1641   1.372       .  S
C1637      C1638   1.407       .  A
C1637      H1642   1.083       .  S
C1638      C1639   1.413       .  A
C1639      C1640   1.409       .  A
C1639      O1643   1.371       .  S
C1640      H1644   1.083       .  S
O1641      H1646   0.992       .  S
O1643      H1647   0.992       .  S
C1649      C1650   1.400       .  A
C1649      C1654   1.392       .  A
C1649      H1659   1.084       .  S
C1650      C1655   1.470       .  S
C1650      C1651   1.405       .  A
C1651      C1652   1.400       .  A
C1651      O1656   1.372       .  S
C1652      C1653   1.405       .  A
C1652      H1657   1.083       .  S
C1653      C1654   1.410       .  A
C1654      O1658   1.372       .  S
C1655      C1660   1.406       .  A
C1655      C1664   1.399       .  A
O1656      H1672   0.992       .  S
O1658      H1669   0.992       .  S
C1660      C1661   1.399       .  A
C1660      O1665   1.372       .  S
C1661      C1662   1.404       .  A
C1661      H1666   1.084       .  S
C1662      C1663   1.411       .  A
C1663      C1664   1.394       .  A
C1663      O1667   1.372       .  S
C1664      H1668   1.084       .  S
O1665      H1670   0.992       .  S
O1667      H1671   0.992       .  S
C1673      C1674   1.402       .  A
C1673      C1678   1.401       .  A
C1673      H1683   1.084       .  S
C1674      C1679   1.492       .  S
C1674      C1675   1.411       .  A
C1675      C1676   1.407       .  A
C1675      O1680   1.371       .  S
C1676      C1677   1.407       .  A
C1676      H1681   1.083       .  S
C1677      C1678   1.415       .  A
C1678      O1682   1.372       .  S
C1679      C1684   1.409       .  A
C1679      C1688   1.407       .  A
O1680      H1696   0.992       .  S
O1682      H1693   0.992       .  S
C1684      C1685   1.399       .  A
C1684      O1689   1.372       .  S
C1685      C1686   1.405       .  A
C1685      H1690   1.084       .  S
C1686      C1687   1.412       .  A
C1687      C1688   1.408       .  A
C1687      O1691   1.371       .  S
C1688      H1692   1.083       .  S
O1689      H1694   0.992       .  S
O1691      H1695   0.992       .  S
C1697      C1698   1.403       .  A
C1697      C1702   1.400       .  A
C1697      H1707   1.084       .  S
C1698      C1703   1.482       .  S
C1698      C1699   1.408       .  A
C1699      C1700   1.402       .  A
C1699      O1704   1.372       .  S
C1700      C1701   1.404       .  A
C1700      H1705   1.084       .  S
C1701      C1702   1.410       .  A
C1702      O1706   1.372       .  S
C1703      C1708   1.406       .  A
C1703      C1712   1.403       .  A
O1704      H1720   0.992       .  S
O1706      H1717   0.992       .  S
C1708      C1709   1.399       .  A
C1708      O1713   1.372       .  S
C1709      C1710   1.408       .  A
C1709      H1714   1.083       .  S
C1710      C1711   1.413       .  A
C1711      C1712   1.402       .  A
C1711      O1715   1.371       .  S
C1712      H1716   1.084       .  S
O1713      H1718   0.992       .  S
O1715      H1719   0.992       .  S
C1721      C1722   1.399       .  A
C1721      C1726   1.398   1_455  A
C1721      H1731   1.084       .  S
C1722      C1727   1.474       .  S
C1722      C1723   1.408   1_455  A
C1723      C1724   1.394       .  A
C1723      O1728   1.372       .  S
C1724      C1725   1.404       .  A
C1724      H1729   1.083       .  S
C1725      C1726   1.415       .  A
C1726      O1730   1.371       .  S
C1727      C1732   1.408       .  A
C1727      C1736   1.403       .  A
O1728      H1744   0.992       .  S
O1730      H1741   0.992       .  S
C1732      C1733   1.398       .  A
C1732      O1737   1.372       .  S
C1733      C1734   1.403       .  A
C1733      H1738   1.084       .  S
C1734      C1735   1.405       .  A
C1735      C1736   1.394       .  A
C1735      O1739   1.372       .  S
C1736      H1740   1.084       .  S
O1737      H1742   0.992       .  S
O1739      H1743   0.992       .  S
C1745      C1746   1.401       .  A
C1745      C1750   1.395       .  A
C1745      H1755   1.084       .  S
C1746      C1751   1.473       .  S
C1746      C1747   1.405       .  A
C1747      C1748   1.401       .  A
C1747      O1752   1.372       .  S
C1748      C1749   1.407       .  A
C1748      H1753   1.084       .  S
C1749      C1750   1.410       .  A
C1750      O1754   1.372       .  S
C1751      C1756   1.405       .  A
C1751      C1760   1.400       .  A
O1752      H1768   0.992       .  S
O1754      H1765   0.992       .  S
C1756      C1757   1.401       .  A
C1756      O1761   1.372       .  S
C1757      C1758   1.408       .  A
C1757      H1762   1.083       .  S
C1758      C1759   1.412       .  A
C1759      C1760   1.395       .  A
C1759      O1763   1.372       .  S
C1760      H1764   1.084       .  S
O1761      H1766   0.992       .  S
O1763      H1767   0.992       .  S
C1769      C1770   1.399       .  A
C1769      C1774   1.396       .  A
C1769      H1779   1.084       .  S
C1770      C1775   1.476       .  S
C1770      C1771   1.409       .  A
C1771      C1772   1.401       .  A
C1771      O1776   1.373       .  S
C1772      C1773   1.403       .  A
C1772      H1777   1.084       .  S
C1773      C1774   1.412       .  A
C1774      O1778   1.372       .  S
C1775      C1780   1.406       .  A
C1775      C1784   1.403       .  A
O1776      H1792   0.992       .  S
O1778      H1789   0.992       .  S
C1780      C1781   1.395       .  A
C1780      O1785   1.372       .  S
C1781      C1782   1.405       .  A
C1781      H1786   1.084       .  S
C1782      C1783   1.411       .  A
C1783      C1784   1.400       .  A
C1783      O1787   1.371       .  S
C1784      H1788   1.084       .  S
O1785      H1790   0.992       .  S
O1787      H1791   0.992       .  S
C1793      C1794   1.402       .  A
C1793      C1798   1.404       .  A
C1793      H1803   1.083       .  S
C1794      C1799   1.475       .  S
C1794      C1795   1.404       .  A
C1795      C1796   1.394       .  A
C1795      O1800   1.372       .  S
C1796      C1797   1.406       .  A
C1796      H1801   1.083       .  S
C1797      C1798   1.414       .  A
C1798      O1802   1.371       .  S
C1799      C1804   1.405       .  A
C1799      C1808   1.399       .  A
O1800      H1816   0.992       .  S
O1802      H1813   0.992       .  S
C1804      C1805   1.401       .  A
C1804      O1809   1.371       .  S
C1805      C1806   1.407   1_455  A
C1805      H1810   1.083       .  S
C1806      C1807   1.416       .  A
C1807      C1808   1.399   1_655  A
C1807      O1811   1.372       .  S
C1808      H1812   1.084       .  S
O1809      H1814   0.992       .  S
O1811      H1815   0.992       .  S
C1817      C1818   1.400       .  A
C1817      C1822   1.396       .  A
C1817      H1827   1.084       .  S
C1818      C1823   1.474       .  S
C1818      C1819   1.406       .  A
C1819      C1820   1.396       .  A
C1819      O1824   1.372       .  S
C1820      C1821   1.405       .  A
C1820      H1825   1.083       .  S
C1821      C1822   1.413       .  A
C1822      O1826   1.372       .  S
C1823      C1828   1.408       .  A
C1823      C1832   1.402       .  A
O1824      H1840   0.992       .  S
O1826      H1837   0.992       .  S
C1828      C1829   1.396   1_565  A
C1828      O1833   1.372       .  S
C1829      C1830   1.402       .  A
C1829      H1834   1.084       .  S
C1830      C1831   1.408   1_545  A
C1831      C1832   1.396       .  A
C1831      O1835   1.372       .  S
C1832      H1836   1.084       .  S
O1833      H1838   0.992       .  S
O1835      H1839   0.992       .  S
C1841      C1842   1.396       .  A
C1841      C1846   1.393       .  A
C1841      H1851   1.084       .  S
C1842      C1847   1.464       .  S
C1842      C1843   1.402       .  A
C1843      C1844   1.399       .  A
C1843      O1848   1.371       .  S
C1844      C1845   1.407       .  A
C1844      H1849   1.083       .  S
C1845      C1846   1.414       .  A
C1846      O1850   1.372       .  S
C1847      C1852   1.402       .  A
C1847      C1856   1.403       .  A
O1848      H1864   0.992       .  S
O1850      H1861   0.992       .  S
C1852      C1853   1.393       .  A
C1852      O1857   1.372       .  S
C1853      C1854   1.400       .  A
C1853      H1858   1.084       .  S
C1854      C1855   1.404       .  A
C1855      C1856   1.400       .  A
C1855      O1859   1.372       .  S
C1856      H1860   1.084       .  S
O1857      H1862   0.992       .  S
O1859      H1863   0.992       .  S
C1865      C1866   1.400       .  A
C1865      C1870   1.396       .  A
C1865      H1875   1.084       .  S
C1866      C1871   1.471       .  S
C1866      C1867   1.406       .  A
C1867      C1868   1.399       .  A
C1867      O1872   1.372       .  S
C1868      C1869   1.403       .  A
C1868      H1873   1.084       .  S
C1869      C1870   1.410       .  A
C1870      O1874   1.372       .  S
C1871      C1876   1.406       .  A
C1871      C1880   1.399       .  A
O1872      H1888   0.992       .  S
O1874      H1885   0.992       .  S
C1876      C1877   1.396       .  A
C1876      O1881   1.372       .  S
C1877      C1878   1.405       .  A
C1877      H1882   1.083       .  S
C1878      C1879   1.413       .  A
C1879      C1880   1.399       .  A
C1879      O1883   1.372       .  S
C1880      H1884   1.084       .  S
O1881      H1886   0.992       .  S
O1883      H1887   0.992       .  S
C1889      C1890   1.399       .  A
C1889      C1894   1.397       .  A
C1889      H1899   1.084       .  S
C1890      C1895   1.469       .  S
C1890      C1891   1.404       .  A
C1891      C1892   1.395       .  A
C1891      O1896   1.372       .  S
C1892      C1893   1.406       .  A
C1892      H1897   1.083       .  S
C1893      C1894   1.413       .  A
C1894      O1898   1.372       .  S
C1895      C1900   1.404       .  A
C1895      C1904   1.399       .  A
O1896      H1912   0.992       .  S
O1898      H1909   0.992       .  S
C1900      C1901   1.398       .  A
C1900      O1905   1.372       .  S
C1901      C1902   1.407       .  A
C1901      H1906   1.083       .  S
C1902      C1903   1.413       .  A
C1903      C1904   1.395       .  A
C1903      O1907   1.372       .  S
C1904      H1908   1.084       .  S
O1905      H1910   0.992       .  S
O1907      H1911   0.992       .  S
C1913      C1914   1.401       .  A
C1913      C1918   1.397       .  A
C1913      H1923   1.083       .  S
C1914      C1919   1.477       .  S
C1914      C1915   1.409       .  A
C1915      C1916   1.394   1_655  A
C1915      O1920   1.372       .  S
C1916      C1917   1.404       .  A
C1916      H1921   1.084       .  S
C1917      C1918   1.412   1_455  A
C1918      O1922   1.371       .  S
C1919      C1924   1.408       .  A
C1919      C1928   1.403       .  A
O1920      H1936   0.992   1_655  S
O1922      H1933   0.992       .  S
C1924      C1925   1.397       .  A
C1924      O1929   1.372       .  S
C1925      C1926   1.405       .  A
C1925      H1930   1.084       .  S
C1926      C1927   1.408   1_565  A
C1927      C1928   1.394   1_545  A
C1927      O1931   1.372       .  S
C1928      H1932   1.084       .  S
O1929      H1934   0.992       .  S
O1931      H1935   0.992       .  S
C1937      C1938   1.400       .  A
C1937      C1942   1.395       .  A
C1937      H1947   1.084       .  S
C1938      C1943   1.474       .  S
C1938      C1939   1.405       .  A
C1939      C1940   1.400       .  A
C1939      O1944   1.373       .  S
C1940      C1941   1.407       .  A
C1940      H1945   1.083       .  S
C1941      C1942   1.412       .  A
C1942      O1946   1.372       .  S
C1943      C1948   1.407       .  A
C1943      C1952   1.401       .  A
O1944      H1960   0.992       .  S
O1946      H1957   0.992       .  S
C1948      C1949   1.396       .  A
C1948      O1953   1.373       .  S
C1949      C1950   1.404       .  A
C1949      H1954   1.084       .  S
C1950      C1951   1.412       .  A
C1951      C1952   1.399       .  A
C1951      O1955   1.371       .  S
C1952      H1956   1.084       .  S
O1953      H1958   0.992       .  S
O1955      H1959   0.992       .  S
C1961      C1962   1.402       .  A
C1961      C1966   1.397       .  A
C1961      H1971   1.084       .  S
C1962      C1967   1.473       .  S
C1962      C1963   1.405       .  A
C1963      C1964   1.395       .  A
C1963      O1968   1.372       .  S
C1964      C1965   1.406       .  A
C1964      H1969   1.083   1_655  S
C1965      C1966   1.413       .  A
C1966      O1970   1.372       .  S
C1967      C1972   1.406       .  A
C1967      C1976   1.401       .  A
O1968      H1984   0.992       .  S
O1970      H1981   0.992       .  S
C1972      C1973   1.399       .  A
C1972      O1977   1.372       .  S
C1973      C1974   1.405       .  A
C1973      H1978   1.083       .  S
C1974      C1975   1.410       .  A
C1975      C1976   1.393       .  A
C1975      O1979   1.372       .  S
C1976      H1980   1.084       .  S
O1977      H1982   0.992       .  S
O1979      H1983   0.992       .  S
