geometry optimzed in LAMMPS
_audit_creation_date              2020-12-01 
_audit_creation_method            'lammps2cif' 
_symmetry_space_group_name_H-M    'P1' 
_symmetry_Int_Tables_number       1 
_symmetry_cell_setting            triclinic 
loop_ 
_symmetry_equiv_pos_as_xyz 
  x,y,z 
_cell_length_a                    46.76496584 
_cell_length_b                    47.14728528796152 
_cell_length_c                    33.06691515000533 
_cell_angle_alpha                 90.0815613808077 
_cell_angle_beta                  90.1775460083346 
_cell_angle_gamma                 90.22158335637778 
loop_ 
_atom_site_label 
_atom_site_type_symbol 
_atom_site_fract_x 
_atom_site_fract_y 
_atom_site_fract_z 
_atom_site_charge 
O1          O  0.09901184  0.26686078  0.06306209    -0.57500
C2          C  0.11220898  0.21655333  0.96010522     0.75100
O3          O  0.07925032  0.27763402  0.94635253    -0.58700
C4          C  0.09351543  0.29291499  0.06839357     0.75100
C5          C  0.17990414  0.27764201  0.00261451     0.77500
Cd6        Cd  0.11868855  0.27269747  0.99371324     1.37500
O7          O  0.09687745  0.22430187  0.98971447    -0.57500
O8          O  0.16447235  0.26495136  0.02826663    -0.56300
C9          C  0.08666002  0.30128163  0.93170832     0.77400
O10         O  0.16691718  0.28907779  0.97322312    -0.58700
O11         O  0.13129902  0.23390673  0.94911728    -0.57100
O12         O  0.09986574  0.30925444  0.03945990    -0.57100
O13         O  0.10917627  0.31245135  0.94620227    -0.56300
O14         O  0.00544781  0.13906897  0.79845076    -0.57500
C15         C  0.05986555  0.12304468  0.70957897     0.75100
O16         O  0.08090329  0.13129595  0.81812302    -0.58700
C17         C  0.98784473  0.12372696  0.81763965     0.75100
C18         C  0.04005667  0.04192752  0.77856289     0.77500
Cd19       Cd  0.04204122  0.10257357  0.78941096     1.37500
O20         O  0.07348864  0.10431632  0.72893836    -0.57500
O21         O  0.01951048  0.05780981  0.76836417    -0.56300
C22         C  0.07568407  0.12660098  0.85498423     0.77400
O23         O  0.06157652  0.05413293  0.79433473    -0.58700
O24         O  0.03755837  0.13220606  0.72680688    -0.57100
O25         O  0.99420783  0.09776318  0.82074118    -0.57100
O26         O  0.05692911  0.10790642  0.86195842    -0.56300
O27         O  0.89165518  0.20503544  0.05184330    -0.57500
C28         C  0.87425566  0.25805707  0.95763729     0.75100
O29         O  0.91017905  0.19621590  0.93875467    -0.58700
C30         C  0.89486297  0.17861689  0.05722925     0.75100
C31         C  0.80905102  0.19113197  0.99691097     0.77500
Cd32       Cd  0.86951014  0.19997900  0.98390067     1.37500
O33         O  0.88955452  0.24849497  0.98616551    -0.57500
O34         O  0.82541446  0.19976145  0.02488637    -0.56300
C35         C  0.90266151  0.17395469  0.92025722     0.77400
O36         O  0.82072494  0.18595406  0.96318581    -0.58700
O37         O  0.85513131  0.24145217  0.94422045    -0.57100
O38         O  0.88748596  0.16271693  0.02811698    -0.57100
O39         O  0.87925950  0.16279342  0.93137026    -0.56300
O40         O  0.99003599  0.33301673  0.79643429    -0.57500
C41         C  0.93780541  0.33297361  0.71548287     0.75100
O42         O  0.93892733  0.35518567  0.85991795    -0.58700
C43         C  0.00345214  0.34776473  0.82232802     0.75100
C44         C  0.94473791  0.42483326  0.76733829     0.77500
Cd45       Cd  0.94939838  0.36523971  0.78858191     1.37500
O46         O  0.95529620  0.35350166  0.71643195    -0.57500
O47         O  0.96752361  0.41077787  0.76391233    -0.56300
C48         C  0.91377492  0.34608334  0.85415524     0.77400
O49         O  0.92346055  0.41133167  0.78123551    -0.58700
O50         O  0.92633890  0.32654569  0.74881194    -0.57100
O51         O  0.99298267  0.37186721  0.83013905    -0.57100
O52         O  0.90386206  0.34926664  0.81877966    -0.56300
O53         O  0.09724461  0.69901537  0.46231363    -0.57500
C54         C  0.11550744  0.75026843  0.56315659     0.75100
O55         O  0.07841480  0.69021600  0.57236124    -0.58700
C56         C  0.09813501  0.67275808  0.45402484     0.75100
C57         C  0.18103650  0.68941083  0.52170314     0.77500
Cd58       Cd  0.12012620  0.69408966  0.52981557     1.37500
O59         O  0.10285498  0.74403269  0.53025026    -0.57500
O60         O  0.16566707  0.70183549  0.49568259    -0.56300
C61         C  0.08490652  0.66728057  0.58976079     0.77400
O62         O  0.16805542  0.67809147  0.55118000    -0.58700
O63         O  0.13167685  0.73137864  0.57759294    -0.57100
O64         O  0.10809224  0.65675959  0.48125698    -0.57100
O65         O  0.10794249  0.65559770  0.57854038    -0.56300
O66         O  0.98984593  0.83412453  0.72936181    -0.57500
C67         C  0.05197347  0.83769341  0.80659248     0.75100
O68         O  0.05229044  0.85386229  0.65906280    -0.58700
C69         C  0.97850960  0.84821837  0.70093438     0.75100
C70         C  0.03855247  0.92126348  0.74563028     0.77500
Cd71       Cd  0.03545318  0.86137469  0.72967791     1.37500
O72         O  0.03402070  0.82508645  0.78401306    -0.57500
O73         O  0.01709643  0.90634482  0.75530809    -0.56300
C74         C  0.07141510  0.83605236  0.66781499     0.77400
O75         O  0.05871204  0.90850461  0.72777043    -0.58700
O76         O  0.06113124  0.86135756  0.79400948    -0.57100
O77         O  0.99273535  0.86922485  0.68840001    -0.57100
O78         O  0.07515947  0.83164752  0.70510665    -0.56300
O79         O  0.89118669  0.77220242  0.46202402    -0.57500
C80         C  0.86975938  0.71695708  0.55362282     0.75100
O81         O  0.90093238  0.77783016  0.58077436    -0.58700
C82         C  0.89021975  0.79860709  0.45486907     0.75100
C83         C  0.80390866  0.77780963  0.51686952     0.77500
Cd84       Cd  0.86483913  0.77487475  0.52742104     1.37500
O85         O  0.88687934  0.72695575  0.52750006    -0.57500
O86         O  0.82010222  0.76791927  0.48973291    -0.56300
C87         C  0.89425168  0.80199507  0.59417018     0.77400
O88         O  0.81609362  0.78737385  0.54834502    -0.58700
O89         O  0.84953058  0.73301455  0.56425486    -0.57100
O90         O  0.87787198  0.81352828  0.48131620    -0.57100
O91         O  0.87380721  0.81438309  0.57635381    -0.56300
O92         O  0.92289791  0.60313287  0.79326807    -0.57500
C93         C  0.99700381  0.62421980  0.69458690     0.75100
O94         O  0.91872571  0.55875542  0.72225227    -0.58700
C95         C  0.92927504  0.62819695  0.80372081     0.75100
C96         C  0.90595229  0.62891233  0.65954803     0.77500
Cd97       Cd  0.94189632  0.60589614  0.72332141     1.37500
O98         O  0.98237547  0.63912644  0.71864756    -0.57500
O99         O  0.89972048  0.63138470  0.69654951    -0.56300
C100        C  0.94071793  0.54545757  0.73411155     0.77400
O101        O  0.92706367  0.61324213  0.65183809    -0.58700
O102        O  0.98747277  0.59959527  0.68729852    -0.57100
O103        O  0.94204919  0.64279028  0.77723421    -0.57100
O104        O  0.96305739  0.56011532  0.74036013    -0.56300
O105        O  0.49084099  0.83194788  0.29825149    -0.57500
C106        C  0.43622313  0.83462911  0.21953812     0.75100
O107        O  0.43650548  0.85155204  0.36576287    -0.58700
C108        C  0.50372327  0.84558679  0.32589689     0.75100
C109        C  0.44548508  0.92359811  0.28290931     0.77500
Cd110      Cd  0.44843523  0.86313069  0.29571109     1.37500
O111        O  0.44839929  0.85861737  0.22103198    -0.57500
O112        O  0.46766975  0.90909064  0.27659496    -0.56300
C113        C  0.41137376  0.84271103  0.35917033     0.77400
O114        O  0.42370646  0.90996835  0.29492324    -0.58700
O115        O  0.43026916  0.82361268  0.25333884    -0.57100
O116        O  0.49177523  0.86809747  0.33771360    -0.57100
O117        O  0.40209779  0.84600491  0.32347748    -0.56300
O118        O  0.60166302  0.76074243  0.56106390    -0.57500
C119        C  0.61252247  0.70931559  0.46549474     0.75100
O120        O  0.60994043  0.80742132  0.44507042    -0.58700
C121        C  0.59417548  0.78625310  0.56617202     0.75100
C122        C  0.68045688  0.77215267  0.50304655     0.77500
Cd123      Cd  0.61943169  0.76679296  0.49198824     1.37500
O124        O  0.59542945  0.71997887  0.49097507    -0.57500
O125        O  0.66423099  0.76353231  0.53095205    -0.56300
C126        C  0.58901893  0.79523453  0.42766530     0.77400
O127        O  0.66824150  0.77915297  0.47032702    -0.58700
O128        O  0.63356995  0.72459897  0.45545901    -0.57100
O129        O  0.59729873  0.80263873  0.53622904    -0.57100
O130        O  0.58286159  0.77061568  0.43998698    -0.56300
O131        O  0.39214400  0.70192014  0.55986366    -0.57500
C132        C  0.37080068  0.75560385  0.46359853     0.75100
O133        O  0.37484031  0.65908014  0.44579445    -0.58700
C134        C  0.39123544  0.67544086  0.56650187     0.75100
C135        C  0.30400370  0.69333944  0.50335980     0.77500
Cd136      Cd  0.36515241  0.69860619  0.49401560     1.37500
O137        O  0.38253134  0.74826027  0.49658024    -0.57500
O138        O  0.31924135  0.70608708  0.52942979    -0.56300
C139        C  0.39780991  0.66987851  0.43251851     0.77400
O140        O  0.31717210  0.68252889  0.47379359    -0.58700
O141        O  0.35489223  0.73717888  0.44700340    -0.57100
O142        O  0.37857645  0.66060332  0.54003517    -0.57100
O143        O  0.40504061  0.69356775  0.44733922    -0.56300
O144        O  0.48972855  0.59341003  0.33590908    -0.57500
C145        C  0.55447778  0.62113703  0.22527716     0.75100
O146        O  0.55076542  0.60345947  0.37264419    -0.58700
C147        C  0.48260867  0.61894493  0.32982069     0.75100
C148        C  0.53703111  0.53617920  0.28773765     0.77500
Cd149      Cd  0.53641629  0.59676153  0.30116646     1.37500
O150        O  0.52936164  0.62478154  0.23847026    -0.57500
O151        O  0.51715389  0.55186237  0.27467457    -0.56300
C152        C  0.57099462  0.62043941  0.36499885     0.77400
O153        O  0.55679449  0.54845704  0.30736452    -0.58700
O154        O  0.57051877  0.60547010  0.24644698    -0.57100
O155        O  0.49935596  0.63326823  0.30781214    -0.57100
O156        O  0.57668995  0.62412117  0.32806583    -0.56300
O157        O  0.38383333  0.25729767  0.95607815    -0.57500
C158        C  0.36804361  0.20588557  0.05618667     0.75100
O159        O  0.40528973  0.26524859  0.06923116    -0.58700
C160        C  0.39026019  0.28327223  0.95189576     0.75100
C161        C  0.30319503  0.27150184  0.01434292     0.77500
Cd162      Cd  0.36375948  0.26272653  0.02512865     1.37500
O163        O  0.38130641  0.21340843  0.02455881    -0.57500
O164        O  0.31777536  0.25717692  0.98956010    -0.56300
C165        C  0.39911724  0.28815358  0.08696783     0.77400
O166        O  0.31676199  0.28237430  0.04378867    -0.58700
O167        O  0.35099305  0.22392308  0.07088929    -0.57100
O168        O  0.38431024  0.29925228  0.98140566    -0.57100
O169        O  0.37616852  0.30017765  0.07585032    -0.56300
O170        O  0.49831246  0.32119299  0.21948623    -0.57500
C171        C  0.55146110  0.32773698  0.30383103     0.75100
O172        O  0.55139484  0.34804768  0.15809606    -0.58700
C173        C  0.48526676  0.33549460  0.19277015     0.75100
C174        C  0.53885320  0.41635874  0.24850522     0.77500
Cd175      Cd  0.53759430  0.35628721  0.22909418     1.37500
O176        O  0.56894558  0.33023338  0.27500784    -0.57500
O177        O  0.51699219  0.40104945  0.25389054    -0.56300
C178        C  0.57492835  0.33602262  0.16566989     0.77400
O179        O  0.56026880  0.40403845  0.23330182    -0.58700
O180        O  0.52686839  0.33823859  0.29822406    -0.57100
O181        O  0.49575402  0.35958503  0.18476222    -0.57100
O182        O  0.58244136  0.33575092  0.20242905    -0.56300
O183        O  0.48832023  0.13807597  0.22196100    -0.57500
C184        C  0.43762539  0.13139428  0.30603463     0.75100
O185        O  0.43489367  0.11135953  0.15721840    -0.58700
C186        C  0.50202538  0.12374296  0.19609761     0.75100
C187        C  0.44453731  0.04401246  0.24650237     0.77500
Cd188      Cd  0.44850692  0.10392859  0.22884403     1.37500
O189        O  0.42981817  0.14220676  0.27280496    -0.57500
O190        O  0.46806499  0.05717940  0.24386950    -0.56300
C191        C  0.41072759  0.12215162  0.16430214     0.77400
O192        O  0.42233280  0.05860056  0.23992422    -0.58700
O193        O  0.45174791  0.10866846  0.30325429    -0.57100
O194        O  0.49240569  0.09924596  0.18830764    -0.57100
O195        O  0.40281770  0.12139196  0.20079495    -0.56300
O196        O  0.59379747  0.19696478  0.96950057    -0.57500
C197        C  0.61899898  0.25109213  0.06087806     0.75100
O198        O  0.58246513  0.18863465  0.07029536    -0.58700
C199        C  0.60026778  0.17250810  0.95669413     0.75100
C200        C  0.68606432  0.19028237  0.01854734     0.77500
Cd201      Cd  0.62498582  0.19426241  0.03060539     1.37500
O202        O  0.61067506  0.24462645  0.02550502    -0.57500
O203        O  0.66993958  0.20527997  0.99655558    -0.56300
C204        C  0.58982693  0.16734310  0.09085362     0.77400
O205        O  0.67387700  0.17683053  0.04693535    -0.58700
O206        O  0.63233377  0.23201935  0.08003162    -0.57100
O207        O  0.61750438  0.15840774  0.97819777    -0.57100
O208        O  0.61425325  0.15710630  0.08304863    -0.56300
O209        O  0.59584304  0.21616460  0.52966273    -0.57500
C210        C  0.59219186  0.28186267  0.45521010     0.75100
O211        O  0.58377594  0.26607486  0.58125634    -0.58700
C212        C  0.61241280  0.20535209  0.55573649     0.75100
C213        C  0.68033711  0.27351077  0.51966599     0.77500
Cd214      Cd  0.61963944  0.26324476  0.52879776     1.37500
O215        O  0.60590473  0.25879718  0.45705077    -0.57500
O216        O  0.66538087  0.26139199  0.49281557    -0.56300
C217        C  0.58849093  0.29143618  0.59181335     0.77400
O218        O  0.66708246  0.28164779  0.55093385    -0.58700
O219        O  0.59090050  0.29609334  0.48755263    -0.57100
O220        O  0.63350924  0.22053349  0.56637060    -0.57100
O221        O  0.60858074  0.30424216  0.57362573    -0.56300
O222        O  0.50604910  0.13716961  0.72055690    -0.57500
C223        C  0.55660800  0.12385427  0.80771112     0.75100
O224        O  0.56213563  0.05131452  0.72937938    -0.58700
C225        C  0.48867835  0.12295997  0.69918676     0.75100
C226        C  0.57403297  0.12038260  0.66470309     0.77500
Cd227      Cd  0.54027431  0.09901105  0.73111639     1.37500
O228        O  0.53058310  0.12299205  0.79701100    -0.57500
O229        O  0.58056256  0.12530251  0.70118469    -0.56300
C230        C  0.54124949  0.03852880  0.74549479     0.77400
O231        O  0.55342764  0.10341629  0.65890418    -0.58700
O232        O  0.57418683  0.11271420  0.78346945    -0.57100
O233        O  0.49363544  0.09663670  0.69635327    -0.57100
O234        O  0.52005752  0.05376801  0.75473093    -0.56300
O235        O  0.42846452  0.31910987  0.76808128    -0.57500
C236        C  0.50391644  0.33890481  0.69757151     0.75100
O237        O  0.43955594  0.34833534  0.65728089    -0.58700
C238        C  0.43531106  0.32906775  0.80230739     0.75100
C239        C  0.44747756  0.41813954  0.74445267     0.77500
Cd240      Cd  0.44995853  0.35820557  0.72825912     1.37500
O241        O  0.49040292  0.32496205  0.72411313    -0.57500
O242        O  0.46993185  0.40382977  0.75010243    -0.56300
C243        C  0.41355007  0.34184365  0.66178341     0.77400
O244        O  0.42595624  0.40461639  0.73119204    -0.58700
O245        O  0.49352078  0.36270059  0.68806647    -0.57100
O246        O  0.44987100  0.35174249  0.80200565    -0.57100
O247        O  0.40345676  0.34528364  0.69695194    -0.56300
O248        O  0.38782271  0.24842796  0.52965746    -0.57500
C249        C  0.39673661  0.18011805  0.45676687     0.75100
O250        O  0.38120370  0.16029785  0.58009076    -0.58700
C251        C  0.37157104  0.25700272  0.55771845     0.75100
C252        C  0.30969991  0.18685223  0.51973076     0.77500
Cd253      Cd  0.36975641  0.19877772  0.53081910     1.37500
O254        O  0.38569169  0.20453934  0.45986390    -0.57500
O255        O  0.32609403  0.19269697  0.49058439    -0.56300
C256        C  0.40403889  0.17206330  0.59252759     0.77400
O257        O  0.32135596  0.18519935  0.55426648    -0.58700
O258        O  0.39563863  0.16482173  0.48817095    -0.57100
O259        O  0.35335719  0.23929568  0.57030194    -0.57100
O260        O  0.41009394  0.19576296  0.57684329    -0.56300
O261        O  0.09986343  0.76618721  0.96273638    -0.57500
C262        C  0.11676811  0.71324787  0.05709594     0.75100
O263        O  0.17087219  0.78612062  0.05330797    -0.58700
C264        C  0.09749802  0.79261951  0.95672567     0.75100
C265        C  0.09004514  0.79928995  0.09276544     0.77500
Cd266      Cd  0.12293435  0.77125987  0.03031331     1.37500
O267        O  0.10205936  0.72258463  0.02776751    -0.57500
O268        O  0.11215262  0.81110864  0.07839408    -0.56300
C269        C  0.18408966  0.77795903  0.02208429     0.77400
O270        O  0.08393791  0.77514452  0.07848878    -0.58700
O271        O  0.13551629  0.73001629  0.07116394    -0.57100
O272        O  0.10651024  0.80854550  0.98482102    -0.57100
O273        O  0.16891119  0.76765669  0.99388203    -0.56300
O274        O  0.03356728  0.63279449  0.28568985    -0.57500
C275        C  0.98352451  0.61825881  0.19758652     0.75100
O276        O  0.05291126  0.61106506  0.15223611    -0.58700
C277        C  0.05824418  0.62813261  0.30011499     0.75100
C278        C  0.04199826  0.54253114  0.24322774     0.77500
Cd279      Cd  0.03983528  0.60229489  0.22481969     1.37500
O280        O  0.99402741  0.59419493  0.18957798    -0.57500
O281        O  0.02293287  0.55869447  0.25729204    -0.56300
C282        C  0.07442220  0.62635553  0.16048768     0.77400
O283        O  0.05999512  0.55406767  0.21990051    -0.58700
O284        O  0.99852643  0.63416770  0.22019655    -0.57100
O285        O  0.07391467  0.61161753  0.27981390    -0.57100
O286        O  0.08048296  0.62859848  0.19755590    -0.56300
O287        O  0.98837778  0.83323031  0.22093204    -0.57500
C288        C  0.93404636  0.84552866  0.30465969     0.75100
O289        O  0.92965915  0.91555036  0.21867178    -0.58700
C290        C  0.00329302  0.84718587  0.19597080     0.75100
C291        C  0.91318082  0.84144547  0.16346234     0.77500
Cd292      Cd  0.94900640  0.86720614  0.22526329     1.37500
O293        O  0.92323674  0.86798872  0.29051741    -0.57500
O294        O  0.90480274  0.84325835  0.19967748    -0.56300
C295        C  0.95084644  0.92774144  0.23533782     0.77400
O296        O  0.93604045  0.85452287  0.15538456    -0.58700
O297        O  0.95258918  0.83362149  0.28269360    -0.57100
O298        O  0.99449056  0.87190062  0.18783529    -0.57100
O299        O  0.97119767  0.91192952  0.24639403    -0.56300
O300        O  0.88769483  0.73980514  0.03340676    -0.57500
C301        C  0.88995303  0.67144777  0.95909452     0.75100
O302        O  0.87557330  0.65057241  0.07683481    -0.58700
C303        C  0.87370493  0.74950704  0.06315324     0.75100
C304        C  0.80283380  0.68660627  0.02332784     0.77500
Cd305      Cd  0.86419911  0.69249887  0.03341052     1.37500
O306        O  0.88624168  0.69777934  0.96485738    -0.57500
O307        O  0.81832763  0.69826318  0.99681608    -0.56300
C308        C  0.89509053  0.66324183  0.09654249     0.77400
O309        O  0.81564126  0.67762212  0.05451995    -0.58700
O310        O  0.88274596  0.65552218  0.98806929    -0.57100
O311        O  0.85393764  0.73369619  0.07646655    -0.57100
O312        O  0.89953443  0.68884568  0.08733343    -0.56300
O313        O  0.11021870  0.24339455  0.48960556    -0.57500
C314        C  0.10089027  0.17033875  0.55719078     0.75100
O315        O  0.08503074  0.19237636  0.44075272    -0.58700
C316        C  0.12118786  0.25175408  0.45666562     0.75100
C317        C  0.18724409  0.18724622  0.49598242     0.77500
Cd318      Cd  0.12659044  0.19397586  0.48409750     1.37500
O319        O  0.11178831  0.15489068  0.52998566    -0.57500
O320        O  0.17185541  0.20229298  0.51885911    -0.56300
C321        C  0.09225360  0.17143017  0.41934059     0.77400
O322        O  0.17459540  0.17520548  0.46662633    -0.58700
O323        O  0.10153903  0.19678751  0.55050035    -0.57100
O324        O  0.13696025  0.23408740  0.43855287    -0.57100
O325        O  0.11563334  0.15950006  0.42866596    -0.56300
O326        O  0.04069519  0.36160188  0.22375519    -0.57500
C327        C  0.98552038  0.34413251  0.33107136     0.75100
O328        O  0.08545593  0.34342387  0.32357697    -0.58700
C329        C  0.05177883  0.33720338  0.22123989     0.75100
C330        C  0.04219903  0.42348573  0.28580295     0.77500
Cd331      Cd  0.03975196  0.36326090  0.29895749     1.37500
O332        O  0.99877203  0.33000168  0.30452280    -0.57500
O333        O  0.01903964  0.40960108  0.28511927    -0.56300
C334        C  0.07826330  0.34245780  0.36036611     0.77400
O335        O  0.06474637  0.40954319  0.29315071    -0.58700
O336        O  0.99648770  0.36779088  0.34039561    -0.57100
O337        O  0.05578920  0.32458543  0.25444339    -0.57100
O338        O  0.05500802  0.35451913  0.36915697    -0.56300
O339        O  0.88551567  0.21850749  0.49642956    -0.57500
C340        C  0.89479396  0.28606108  0.56531149     0.75100
O341        O  0.89913378  0.26973197  0.43810146    -0.58700
C342        C  0.87239256  0.20931522  0.46541289     0.75100
C343        C  0.80380271  0.27528867  0.50523126     0.77500
Cd344      Cd  0.86485022  0.26687501  0.49358811     1.37500
O345        O  0.88619204  0.26063268  0.56188060    -0.57500
O346        O  0.81955878  0.26456854  0.53225980    -0.56300
C347        C  0.89757018  0.29615682  0.43234943     0.77400
O348        O  0.81636220  0.28279596  0.47309117    -0.58700
O349        O  0.88962985  0.30206124  0.53560222    -0.57100
O350        O  0.85434230  0.22599733  0.44978021    -0.57100
O351        O  0.87957961  0.30940092  0.45378090    -0.56300
O352        O  0.98515019  0.14519866  0.30243652    -0.57500
C353        C  0.93316189  0.13363906  0.21149641     0.75100
O354        O  0.92983734  0.05984165  0.29068843    -0.58700
C355        C  0.00500822  0.12869162  0.31331334     0.75100
C356        C  0.91708884  0.12607850  0.35851752     0.77500
Cd357      Cd  0.94981624  0.10825497  0.28829384     1.37500
O358        O  0.95089507  0.14566347  0.23484531    -0.57500
O359        O  0.94066745  0.11335696  0.36179293    -0.56300
C360        C  0.95025816  0.04798809  0.27218552     0.77400
O361        O  0.90703528  0.12764518  0.32300581    -0.58700
O362        O  0.92316047  0.11029011  0.22387560    -0.57100
O363        O  0.00012083  0.10241315  0.30908774    -0.57100
O364        O  0.97103336  0.06390204  0.26259519    -0.56300
O365        O  0.38311294  0.71604864  0.99309087    -0.57500
C366        C  0.39495037  0.78398065  0.07014083     0.75100
O367        O  0.40803570  0.76675941  0.95012489    -0.58700
C368        C  0.36798261  0.70951941  0.96254908     0.75100
C369        C  0.30721154  0.77572665  0.00554934     0.77500
Cd370      Cd  0.36748994  0.76585576  0.99551736     1.37500
O371        O  0.38749936  0.75839104  0.06472388    -0.57500
O372        O  0.32153170  0.76084340  0.03008722    -0.56300
C373        C  0.40248255  0.78987037  0.93255087     0.77400
O374        O  0.32117224  0.78747625  0.97735139    -0.58700
O375        O  0.39006111  0.80063256  0.04096576    -0.57100
O376        O  0.35096419  0.72836563  0.95002997    -0.57100
O377        O  0.38036765  0.80287236  0.94463505    -0.56300
O378        O  0.60354726  0.73961949  0.99807754    -0.57500
C379        C  0.59665973  0.66915124  0.07536240     0.75100
O380        O  0.60410589  0.64882438  0.95247002    -0.58700
C381        C  0.61555429  0.74506746  0.96453067     0.75100
C382        C  0.67940738  0.68388498  0.00839132     0.77500
Cd383      Cd  0.61829657  0.68895210  0.99861071     1.37500
O384        O  0.59198074  0.69441343  0.06402191    -0.57500
O385        O  0.66420589  0.69894275  0.03153802    -0.56300
C386        C  0.58169320  0.66096052  0.93966961     0.77400
O387        O  0.66627583  0.67070299  0.98042968    -0.58700
O388        O  0.61044489  0.65373643  0.05103253    -0.57100
O389        O  0.63007848  0.72520397  0.94921761    -0.57100
O390        O  0.57648709  0.68503296  0.95466588    -0.56300
O391        O  0.45298752  0.62780728  0.73306580    -0.57500
C392        C  0.49434204  0.61693803  0.83231563     0.75100
O393        O  0.42140492  0.60421041  0.86267854    -0.58700
C394        C  0.42937799  0.62271832  0.71549837     0.75100
C395        C  0.44183288  0.53860516  0.77825804     0.77500
Cd396      Cd  0.44169390  0.59880530  0.79423564     1.37500
O397        O  0.48323891  0.63058806  0.80330510    -0.57500
O398        O  0.46294814  0.55444000  0.77020540    -0.56300
C399        C  0.40371405  0.62335173  0.85356488     0.77400
O400        O  0.42045934  0.55064130  0.79407807    -0.58700
O401        O  0.48213008  0.59391461  0.84177944    -0.57100
O402        O  0.41216589  0.60670574  0.73424178    -0.57100
O403        O  0.40170091  0.62924073  0.81641805    -0.56300
O404        O  0.50422594  0.82164769  0.80519096    -0.57500
C405        C  0.55533960  0.83238149  0.71856203     0.75100
O406        O  0.56643842  0.90509609  0.79484671    -0.58700
C407        C  0.48879591  0.83674115  0.82805140     0.75100
C408        C  0.57688867  0.83423353  0.86062653     0.77500
Cd409      Cd  0.54213831  0.85755752  0.79609380     1.37500
O410        O  0.53201253  0.84534078  0.72405597    -0.57500
O411        O  0.58355946  0.83200997  0.82370674    -0.56300
C412        C  0.54520627  0.91782918  0.77948032     0.77400
O413        O  0.55594740  0.85028954  0.86822181    -0.58700
O414        O  0.57175747  0.83067120  0.74887913    -0.57100
O415        O  0.49722144  0.86192437  0.83386108    -0.57100
O416        O  0.52333866  0.90276272  0.77277105    -0.56300
C417        C  0.58962750  0.79088095  0.95591417    -0.26000
C418        C  0.61099708  0.77224137  0.94254868    -0.14100
C419        C  0.62473815  0.77790963  0.90529216     0.36500
C420        C  0.61477730  0.80008879  0.88068595    -0.25500
C421        C  0.59134136  0.81679311  0.89212756    -0.14700
C422        C  0.57958312  0.81290001  0.93105601     0.37600
N423        N  0.55628856  0.83003929  0.94466100    -0.89000
H424        H  0.57919328  0.78722357  0.98466332     0.18700
H425        H  0.62440587  0.80324778  0.85126961     0.18700
N426        N  0.64780405  0.76032156  0.89148540    -0.88000
H427        H  0.56244557  0.83984516  0.97170833     0.36100
H428        H  0.53894501  0.81667091  0.95082863     0.41200
H429        H  0.66497056  0.76330136  0.91135952     0.40800
H430        H  0.65487076  0.76678904  0.86294403     0.35700
C431        C  0.54610260  0.66713532  0.88477274    -0.26000
C432        C  0.56222736  0.64849439  0.90875657    -0.14100
C433        C  0.55787397  0.61896006  0.90443611     0.36500
C434        C  0.53616035  0.60897792  0.87825253    -0.25500
C435        C  0.51933410  0.62782367  0.85546039    -0.14700
C436        C  0.52498455  0.65714788  0.85815221     0.37600
N437        N  0.50842598  0.67708279  0.83540405    -0.89000
H438        H  0.54946458  0.68983129  0.88729578     0.18700
H439        H  0.53204803  0.58639057  0.87611659     0.18700
N440        N  0.57444049  0.59929150  0.92788777    -0.88000
H441        H  0.52242434  0.68901550  0.81756521     0.36100
H442        H  0.49846085  0.69085420  0.85572368     0.41200
H443        H  0.59548233  0.60035042  0.91743304     0.40800
H444        H  0.56751111  0.57848804  0.92261730     0.35700
C445        C  0.35723732  0.67893666  0.90296308    -0.26000
C446        C  0.37169050  0.68254252  0.94001993    -0.14100
C447        C  0.39260157  0.66253715  0.95128349     0.36500
C448        C  0.40059562  0.64126664  0.92392277    -0.25500
C449        C  0.38862523  0.63993878  0.88495777    -0.14700
C450        C  0.36569506  0.65803717  0.87526661     0.37600
N451        N  0.35169547  0.65606682  0.83676355    -0.89000
H452        H  0.34062122  0.69363691  0.89404386     0.18700
H453        H  0.41797033  0.62725065  0.93215232     0.18700
N454        N  0.40703190  0.66463287  0.98944257    -0.88000
H455        H  0.35377082  0.67563223  0.82219486     0.36100
H456        H  0.32993273  0.65239214  0.84181387     0.41200
H457        H  0.42891430  0.66713852  0.98393141     0.40800
H458        H  0.40408808  0.64552688  0.00488565     0.35700
C459        C  0.42167943  0.83039465  0.89226211    -0.26000
C460        C  0.42158406  0.80120224  0.90060764    -0.14100
C461        C  0.44128017  0.78343887  0.88042668     0.36500
C462        C  0.46191698  0.79552625  0.85494108    -0.25500
C463        C  0.46346542  0.82494466  0.84909118    -0.14700
C464        C  0.44251287  0.84250986  0.86686998     0.37600
N465        N  0.44288344  0.87261161  0.85999085    -0.89000
H466        H  0.40628391  0.84400858  0.90703281     0.18700
H467        H  0.47772551  0.78192246  0.84104013     0.18700
N468        N  0.44074981  0.75323656  0.88654698    -0.88000
H469        H  0.42628017  0.88247540  0.87568869     0.36100
H470        H  0.43891385  0.87592179  0.82922477     0.41200
H471        H  0.45709832  0.74337793  0.87030779     0.40800
H472        H  0.42146768  0.74555729  0.87466541     0.35700
C473        C  0.90668987  0.16993860  0.45389242    -0.26000
C474        C  0.87981396  0.18187768  0.44592043    -0.14100
C475        C  0.86281193  0.17014371  0.41465040     0.36500
C476        C  0.87466744  0.14973538  0.38857461    -0.25500
C477        C  0.90306533  0.14061841  0.39320034    -0.14700
C478        C  0.91857249  0.14969915  0.42791670     0.37600
N479        N  0.94716258  0.14052844  0.43621042    -0.89000
H480        H  0.91974125  0.17816619  0.47841581     0.18700
H481        H  0.86218940  0.14218661  0.36305197     0.18700
N482        N  0.83406408  0.17989783  0.40831063    -0.88000
H483        H  0.96046416  0.14683961  0.41251221     0.36100
H484        H  0.94720431  0.11841716  0.43854272     0.41200
H485        H  0.82222451  0.17439639  0.43390181     0.40800
H486        H  0.82459136  0.16931847  0.38384555     0.35700
C487        C  0.94781391  0.34945730  0.38365996    -0.26000
C488        C  0.95967368  0.33320378  0.35218233    -0.14100
C489        C  0.94842485  0.30581861  0.34448622     0.36500
C490        C  0.92742562  0.29459912  0.37035421    -0.25500
C491        C  0.91667969  0.31036894  0.40296059    -0.14700
C492        C  0.92645883  0.33835320  0.40890275     0.37600
N493        N  0.91592409  0.35508191  0.44180280    -0.89000
H494        H  0.95591948  0.37058272  0.38989761     0.18700
H495        H  0.91967183  0.27318589  0.36536294     0.18700
N496        N  0.95876203  0.28915696  0.31119374    -0.88000
H497        H  0.90731983  0.37372632  0.42985676     0.36100
H498        H  0.93323224  0.36064467  0.46031056     0.41200
H499        H  0.95268880  0.29948027  0.28456128     0.40800
H500        H  0.94880912  0.26926773  0.31053927     0.35700
C501        C  0.13018685  0.28952923  0.40515918    -0.26000
C502        C  0.11424400  0.27969644  0.43836864    -0.14100
C503        C  0.08951562  0.29471340  0.44985542     0.36500
C504        C  0.07986370  0.31737627  0.42615544    -0.25500
C505        C  0.09411107  0.32527141  0.39056236    -0.14700
C506        C  0.12052657  0.31235787  0.38134905     0.37600
N507        N  0.13680731  0.32161521  0.34697137    -0.89000
H508        H  0.14956132  0.27855091  0.39659575     0.18700
H509        H  0.05975887  0.32727070  0.43405739     0.18700
N510        N  0.07286644  0.28583455  0.48388216    -0.88000
H511        H  0.15551761  0.30974282  0.34417024     0.36100
H512        H  0.14318589  0.34256793  0.35247797     0.41200
H513        H  0.05229345  0.28072724  0.47365102     0.40800
H514        H  0.07125107  0.30296948  0.50382683     0.35700
C515        C  0.07357304  0.13261935  0.37515193    -0.26000
C516        C  0.07360430  0.16136247  0.38608354    -0.14100
C517        C  0.05407394  0.17989296  0.36722281     0.36500
C518        C  0.03323261  0.16900348  0.34094679    -0.25500
C519        C  0.03131306  0.13977988  0.33303876    -0.14700
C520        C  0.05256143  0.12165128  0.34891637     0.37600
N521        N  0.05233794  0.09195079  0.33981505    -0.89000
H522        H  0.08888589  0.11827527  0.38872272     0.18700
H523        H  0.01761066  0.18345367  0.32833358     0.18700
N524        N  0.05501350  0.20978527  0.37514191    -0.88000
H525        H  0.05066859  0.08079917  0.36701869     0.36100
H526        H  0.07194072  0.08683080  0.32660747     0.41200
H527        H  0.03521705  0.21586599  0.38685536     0.40800
H528        H  0.05795026  0.22030458  0.34763696     0.35700
C529        C  0.75433459  0.68856133  0.05325886    -0.26000
C530        C  0.77136650  0.68433129  0.01894440    -0.14100
C531        C  0.75789023  0.67833464  0.98146494     0.36500
C532        C  0.72797727  0.67703629  0.97913665    -0.25500
C533        C  0.71093216  0.68255649  0.01311720    -0.14700
C534        C  0.72437758  0.68813205  0.05059884     0.37600
N535        N  0.70774781  0.69329144  0.08614886    -0.89000
H536        H  0.76432143  0.69304001  0.08221059     0.18700
H537        H  0.71799943  0.67264345  0.95016042     0.18700
N538        N  0.77392803  0.67310655  0.94540028    -0.88000
H539        H  0.71329275  0.71331203  0.09738157     0.36100
H540        H  0.71336508  0.67820569  0.10790192     0.41200
H541        H  0.78820671  0.65656613  0.95096465     0.40800
H542        H  0.78550408  0.69139863  0.93811858     0.35700
C543        C  0.92530378  0.97211573  0.25216384    -0.26000
C544        C  0.95118465  0.95867435  0.24295953    -0.14100
C545        C  0.97664562  0.97496719  0.24214543     0.36500
C546        C  0.97573499  0.00391743  0.25150521    -0.25500
C547        C  0.94995365  0.01726993  0.26194160    -0.14700
C548        C  0.92433503  0.00118668  0.26155372     0.37600
N549        N  0.89735988  0.01437233  0.27017799    -0.89000
H550        H  0.90570684  0.95977238  0.25250791     0.18700
H551        H  0.99548723  0.01600444  0.25092682     0.18700
N552        N  0.00358318  0.96299482  0.23081912    -0.88000
H553        H  0.88078193  0.99942823  0.26951565     0.36100
H554        H  0.89314462  0.02872102  0.24684690     0.41200
H555        H  0.00132818  0.95339365  0.20244127     0.40800
H556        H  0.00936853  0.94766193  0.25203552     0.35700
C557        C  0.86412338  0.78614241  0.11602245    -0.26000
C558        C  0.88096217  0.77687478  0.08337885    -0.14100
C559        C  0.90608893  0.79218024  0.07399283     0.36500
C560        C  0.91460405  0.81508694  0.09842296    -0.25500
C561        C  0.89910983  0.82269409  0.13312710    -0.14700
C562        C  0.87301251  0.80868912  0.14098934     0.37600
N563        N  0.85589527  0.81657122  0.17501652    -0.89000
H564        H  0.84456537  0.77497301  0.12355825     0.18700
H565        H  0.93467335  0.82560062  0.09166964     0.18700
N566        N  0.92401364  0.78366613  0.04113534    -0.88000
H567        H  0.85361695  0.79879902  0.19363572     0.36100
H568        H  0.83560863  0.82213652  0.16436786     0.41200
H569        H  0.94425257  0.77891448  0.05282981     0.40800
H570        H  0.92620129  0.80087737  0.02149981     0.35700
C571        C  0.01988357  0.50039945  0.27584679    -0.26000
C572        C  0.04288210  0.51195046  0.25398479    -0.14100
C573        C  0.06623849  0.49428534  0.24391806     0.36500
C574        C  0.06606723  0.46575330  0.25629156    -0.25500
C575        C  0.04274678  0.45422022  0.27721026    -0.14700
C576        C  0.01950640  0.47178379  0.28744386     0.37600
N577        N  0.99570776  0.46058185  0.30986985    -0.89000
H578        H  0.00195474  0.51372804  0.28389905     0.18700
H579        H  0.08378130  0.45214501  0.24821016     0.18700
N580        N  0.09002304  0.50516120  0.22119321    -0.88000
H581        H  0.98026787  0.47621302  0.31459209     0.36100
H582        H  0.00329419  0.45475690  0.33844369     0.41200
H583        H  0.08270237  0.50915418  0.19184331     0.40800
H584        H  0.10597452  0.48981270  0.21840269     0.35700
C585        C  0.94235424  0.61011360  0.15071980    -0.26000
C586        C  0.95628019  0.62789579  0.17886428    -0.14100
C587        C  0.94605743  0.65580509  0.18447280     0.36500
C588        C  0.92470795  0.66623345  0.15859101    -0.25500
C589        C  0.91284608  0.64931326  0.12782113    -0.14700
C590        C  0.92076307  0.62053619  0.12503947     0.37600
N591        N  0.90821670  0.60245681  0.09469804    -0.89000
H592        H  0.94955449  0.58846942  0.14686713     0.18700
H593        H  0.91799246  0.68811615  0.16151425     0.18700
N594        N  0.95817047  0.67392514  0.21511559    -0.88000
H595        H  0.91599980  0.58177995  0.09732372     0.36100
H596        H  0.91487442  0.60988725  0.06645929     0.41200
H597        H  0.95300942  0.66512917  0.24318487     0.40800
H598        H  0.94878016  0.69400945  0.21436659     0.35700
C599        C  0.22810645  0.78506924  0.98112889    -0.26000
C600        C  0.21562890  0.77962603  0.01890390    -0.14100
C601        C  0.23340816  0.77382506  0.05245507     0.36500
C602        C  0.26320151  0.77311009  0.04729544    -0.25500
C603        C  0.27575728  0.77845902  0.00953580    -0.14700
C604        C  0.25797329  0.78458890  0.97602560     0.37600
N605        N  0.27011900  0.78936719  0.93671008    -0.89000
H606        H  0.21443330  0.78930144  0.95533152     0.18700
H607        H  0.27672032  0.76817726  0.07299255     0.18700
N608        N  0.22117559  0.76725376  0.09118757    -0.88000
H609        H  0.25414064  0.79411894  0.91563685     0.36100
H610        H  0.27935523  0.77032392  0.92722043     0.41200
H611        H  0.21240340  0.78594223  0.10269409     0.40800
H612        H  0.23707828  0.76119870  0.11168991     0.35700
C613        C  0.07857234  0.64591558  0.09030963    -0.26000
C614        C  0.09026869  0.64271484  0.12928984    -0.14100
C615        C  0.11485445  0.65857363  0.13971310     0.36500
C616        C  0.12486013  0.67970284  0.11361856    -0.25500
C617        C  0.11087474  0.68553868  0.07694858    -0.14700
C618        C  0.08882246  0.66704865  0.06379277     0.37600
N619        N  0.07608392  0.67054215  0.02451573    -0.89000
H620        H  0.06028794  0.63315348  0.08140961     0.18700
H621        H  0.14255506  0.69287783  0.12363664     0.18700
N622        N  0.12904385  0.65429015  0.17766816    -0.88000
H623        H  0.05998585  0.65544349  0.01979257     0.36100
H624        H  0.09193156  0.66643373  0.00305951     0.41200
H625        H  0.12871260  0.67341174  0.19373248     0.40800
H626        H  0.15037102  0.64918873  0.17183847     0.35700
C627        C  0.05355648  0.79446562  0.14629127    -0.26000
C628        C  0.07151391  0.81243537  0.12396829    -0.14100
C629        C  0.06919054  0.84209302  0.12926675     0.36500
C630        C  0.04761566  0.85294506  0.15465316    -0.25500
C631        C  0.02856450  0.83484153  0.17522370    -0.14700
C632        C  0.03224441  0.80512952  0.17144369     0.37600
N633        N  0.01377427  0.78501923  0.19077193    -0.89000
H634        H  0.05529805  0.77165899  0.14298238     0.18700
H635        H  0.04512239  0.87570632  0.15739710     0.18700
N636        N  0.08755923  0.86110690  0.10735955    -0.88000
H637        H  0.99278161  0.78835009  0.18093204     0.36100
H638        H  0.01509964  0.78785308  0.22206042     0.41200
H639        H  0.10827843  0.85852814  0.11867952     0.40800
H640        H  0.08201413  0.88219761  0.11309390     0.35700
C641        C  0.23653312  0.17793599  0.47058812    -0.26000
C642        C  0.21839923  0.18438850  0.50305027    -0.14100
C643        C  0.23043315  0.18899126  0.54171491     0.36500
C644        C  0.26020185  0.18847015  0.54683885    -0.25500
C645        C  0.27843156  0.18356102  0.51396663    -0.14700
C646        C  0.26636566  0.17760221  0.47567449     0.37600
N647        N  0.28428545  0.17121570  0.44183401    -0.89000
H648        H  0.22761547  0.17394732  0.44082109     0.18700
H649        H  0.26906767  0.19284314  0.57652890     0.18700
N650        N  0.21251232  0.19410429  0.57599898    -0.88000
H651        H  0.28008351  0.18600189  0.41906340     0.36100
H652        H  0.27861017  0.15112902  0.43095793     0.41200
H653        H  0.21818394  0.21373806  0.58842239     0.40800
H654        H  0.21669254  0.17845284  0.59758611     0.35700
C655        C  0.41958425  0.46194201  0.75826890    -0.26000
C656        C  0.44629840  0.44894492  0.75311890    -0.14100
C657        C  0.47133341  0.46558632  0.75637965     0.36500
C658        C  0.46922001  0.49467821  0.76440598    -0.25500
C659        C  0.44255413  0.50772745  0.76974490    -0.14700
C660        C  0.41739112  0.49111302  0.76663485     0.37600
N661        N  0.38972084  0.50382818  0.77151546    -0.89000
H662        H  0.40027321  0.44926931  0.75589945     0.18700
H663        H  0.48871461  0.50708507  0.76675440     0.18700
N664        N  0.49900224  0.45321585  0.75101946    -0.88000
H665        H  0.37355552  0.48850917  0.76932482     0.36100
H666        H  0.38664668  0.51777478  0.74735041     0.41200
H667        H  0.51093484  0.45681958  0.77734112     0.40800
H668        H  0.50917099  0.46369996  0.72718739     0.35700
C669        C  0.39813977  0.30258533  0.56488719    -0.26000
C670        C  0.37558064  0.28503223  0.57757116    -0.14100
C671        C  0.36063390  0.29221211  0.61333764     0.36500
C672        C  0.37165713  0.31353361  0.63878368    -0.25500
C673        C  0.39697849  0.32796283  0.62894564    -0.14700
C674        C  0.40880172  0.32411401  0.59011865     0.37600
N675        N  0.43259386  0.34094176  0.57701282    -0.89000
H676        H  0.40901804  0.29828241  0.53666342     0.18700
H677        H  0.36173026  0.31716456  0.66788757     0.18700
N678        N  0.33555268  0.27661468  0.62519064    -0.88000
H679        H  0.42671906  0.35118822  0.55022512     0.36100
H680        H  0.44957034  0.32733955  0.57050754     0.41200
H681        H  0.31967812  0.28061689  0.60362300     0.40800
H682        H  0.32772070  0.28406712  0.65279666     0.35700
C683        C  0.56853655  0.99408437  0.75801572    -0.26000
C684        C  0.54192517  0.00755630  0.75351528    -0.14100
C685        C  0.51669072  0.99101337  0.75634353     0.36500
C686        C  0.51858873  0.96203366  0.76453866    -0.25500
C687        C  0.54509729  0.94864022  0.77009641    -0.14700
C688        C  0.57043386  0.96479180  0.76598030     0.37600
N689        N  0.59793238  0.95145068  0.76916284    -0.89000
H690        H  0.58799888  0.00648095  0.75538575     0.18700
H691        H  0.49892608  0.94991061  0.76687732     0.18700
N692        N  0.48880033  0.00270485  0.75002079    -0.88000
H693        H  0.61432596  0.96639940  0.76584952     0.36100
H694        H  0.59979262  0.93737957  0.74483975     0.41200
H695        H  0.48829121  0.01256026  0.72170775     0.40800
H696        H  0.48470540  0.01764713  0.77258338     0.35700
C697        C  0.44307079  0.11919515  0.66033740    -0.26000
C698        C  0.46489569  0.13645064  0.67653358    -0.14100
C699        C  0.46523973  0.16568975  0.66662975     0.36500
C700        C  0.44447758  0.17661937  0.64067895    -0.25500
C701        C  0.42335050  0.15924437  0.62315932    -0.14700
C702        C  0.42245376  0.13016238  0.63347448     0.37600
N703        N  0.40141254  0.11162627  0.61568686    -0.89000
H704        H  0.44270730  0.09677022  0.66745332     0.18700
H705        H  0.44551453  0.19897541  0.63319985     0.18700
N706        N  0.48710193  0.18473752  0.68060298    -0.88000
H707        H  0.40333501  0.09109271  0.62726849     0.36100
H708        H  0.40588303  0.11017242  0.58479164     0.41200
H709        H  0.50699389  0.17738480  0.67082822     0.40800
H710        H  0.48662944  0.18550719  0.71216540     0.35700
C711        C  0.72880999  0.27621686  0.55059314    -0.26000
C712        C  0.71177668  0.27681286  0.51554805    -0.14100
C713        C  0.72532136  0.27932334  0.47746184     0.36500
C714        C  0.75518934  0.27998293  0.47522698    -0.25500
C715        C  0.77229368  0.27781310  0.51005099    -0.14700
C716        C  0.75888287  0.27661430  0.54833189     0.37600
N717        N  0.77572390  0.27564242  0.58474753    -0.89000
H718        H  0.71862644  0.27460927  0.57990027     0.18700
H719        H  0.76508523  0.28126986  0.44569340     0.18700
N720        N  0.70945475  0.28162966  0.44048509    -0.88000
H721        H  0.76256402  0.27436565  0.61018612     0.36100
H722        H  0.78681412  0.29488605  0.58703175     0.41200
H723        H  0.69510737  0.29860372  0.44308636     0.40800
H724        H  0.69807849  0.26293115  0.43563281     0.35700
C725        C  0.55649409  0.28741844  0.65106968    -0.26000
C726        C  0.57063842  0.30493262  0.62319553    -0.14100
C727        C  0.56536380  0.33432836  0.62374974     0.36500
C728        C  0.54472833  0.34531682  0.65018118    -0.25500
C729        C  0.52928926  0.32748843  0.67639145    -0.14700
C730        C  0.53613883  0.29838348  0.67777497     0.37600
N731        N  0.52173771  0.27956379  0.70499245    -0.89000
H732        H  0.56065479  0.26481765  0.65143351     0.18700
H733        H  0.53998023  0.36777929  0.64892839     0.18700
N734        N  0.57975986  0.35291316  0.59622142    -0.88000
H735        H  0.53715950  0.26985330  0.72322971     0.36100
H736        H  0.51158444  0.26376625  0.68793045     0.41200
H737        H  0.59048197  0.36838814  0.61318587     0.40800
H738        H  0.56432087  0.36307544  0.57852716     0.35700
C739        C  0.62388729  0.16942322  0.60826013    -0.26000
C740        C  0.60626454  0.17781468  0.57591416    -0.14100
C741        C  0.58090015  0.16224128  0.56808692     0.36500
C742        C  0.57197039  0.14141377  0.59585067    -0.25500
C743        C  0.58791128  0.13577891  0.63099236    -0.14700
C744        C  0.61489269  0.14868007  0.63581108     0.37600
N745        N  0.63281838  0.14150583  0.66944437    -0.89000
H746        H  0.64393390  0.18033229  0.61397250     0.18700
H747        H  0.55146098  0.13106349  0.59147583     0.18700
N748        N  0.56350773  0.16860042  0.53337182    -0.88000
H749        H  0.63684952  0.15998526  0.68604269     0.36100
H750        H  0.65230317  0.13419506  0.65810189     0.41200
H751        H  0.54527357  0.15569340  0.53269958     0.40800
H752        H  0.57539585  0.16345380  0.50768156     0.35700
C753        C  0.59547261  0.13334434  0.85703814    -0.26000
C754        C  0.56665867  0.13703542  0.84614227    -0.14100
C755        C  0.54880783  0.15344623  0.87155083     0.36500
C756        C  0.56020837  0.16522452  0.90743505    -0.25500
C757        C  0.58892574  0.16095043  0.91827853    -0.14700
C758        C  0.60679767  0.14522814  0.89249214     0.37600
N759        N  0.63661478  0.14181006  0.90205707    -0.89000
H760        H  0.60946271  0.12115142  0.83767209     0.18700
H761        H  0.54658669  0.17750238  0.92725109     0.18700
N762        N  0.51935867  0.15817597  0.86103071    -0.88000
H763        H  0.64615413  0.16190020  0.90112059     0.36100
H764        H  0.64681339  0.12956429  0.88006175     0.41200
H765        H  0.51904389  0.17076079  0.83502242     0.40800
H766        H  0.50911401  0.16987321  0.88359392     0.35700
C767        C  0.41816526  0.17191757  0.34586746    -0.26000
C768        C  0.42983358  0.14445453  0.34561174    -0.14100
C769        C  0.43240743  0.12986231  0.38292175     0.36500
C770        C  0.42209486  0.14225925  0.41846077    -0.25500
C771        C  0.40961095  0.16933289  0.41852746    -0.14700
C772        C  0.40860948  0.18474123  0.38186819     0.37600
N773        N  0.39769892  0.21319759  0.38100155    -0.89000
H774        H  0.41647653  0.18355921  0.31774817     0.18700
H775        H  0.42358101  0.13026499  0.44631684     0.18700
N776        N  0.44480796  0.10221037  0.38593395    -0.88000
H777        H  0.39759168  0.22109512  0.35156340     0.36100
H778        H  0.41203526  0.22597014  0.39737931     0.41200
H779        H  0.46590601  0.10321982  0.37583595     0.40800
H780        H  0.43306767  0.08810070  0.36784156     0.35700
C781        C  0.54864623  0.11747027  0.16061146    -0.26000
C782        C  0.52675110  0.13556352  0.17389842    -0.14100
C783        C  0.52704441  0.16428444  0.16203822     0.36500
C784        C  0.54887246  0.17412910  0.13672780    -0.25500
C785        C  0.57020590  0.15593030  0.12206477    -0.14700
C786        C  0.57061186  0.12741368  0.13509290     0.37600
N787        N  0.59236055  0.10837070  0.12103993    -0.89000
H788        H  0.54828829  0.09537841  0.16959190     0.18700
H789        H  0.54856439  0.19610129  0.12715562     0.18700
N790        N  0.50430804  0.18303382  0.17375906    -0.88000
H791        H  0.58865261  0.08786416  0.13188003     0.36100
H792        H  0.61176568  0.11499568  0.13375186     0.41200
H793        H  0.48554921  0.17582772  0.15974050     0.40800
H794        H  0.50794320  0.20352474  0.16283086     0.35700
C795        C  0.59065401  0.28215705  0.38027688    -0.26000
C796        C  0.57934492  0.29202193  0.41689915    -0.14100
C797        C  0.55695230  0.31212570  0.41609668     0.36500
C798        C  0.54744211  0.32286340  0.37869124    -0.25500
C799        C  0.55982885  0.31393100  0.34223579    -0.14700
C800        C  0.58118120  0.29291637  0.34315860     0.37600
N801        N  0.59322669  0.28224587  0.30640397    -0.89000
H802        H  0.60756150  0.26649951  0.38037027     0.18700
H803        H  0.53083376  0.33882159  0.37807611     0.18700
N804        N  0.54400045  0.32160274  0.45308376    -0.88000
H805        H  0.58966484  0.26033902  0.30539681     0.36100
H806        H  0.61530683  0.28572404  0.30734004     0.41200
H807        H  0.53373267  0.30414074  0.46609473     0.40800
H808        H  0.52810470  0.33659532  0.44715412     0.35700
C809        C  0.57733860  0.31519855  0.09673526    -0.26000
C810        C  0.59106645  0.32068381  0.13380168    -0.14100
C811        C  0.61752856  0.30744088  0.14192504     0.36500
C812        C  0.62762795  0.28646050  0.11531925    -0.25500
C813        C  0.61193006  0.27842867  0.08079114    -0.14700
C814        C  0.58717973  0.29410775  0.07051079     0.37600
N815        N  0.57020459  0.28773202  0.03550943    -0.89000
H816        H  0.55732358  0.32557653  0.08955369     0.18700
H817        H  0.64704159  0.27514456  0.12289481     0.18700
N818        N  0.63333908  0.31423292  0.17803709    -0.88000
H819        H  0.56271844  0.26686017  0.03763056     0.36100
H820        H  0.58299131  0.28982867  0.00982959     0.41200
H821        H  0.63977670  0.33545800  0.17584115     0.40800
H822        H  0.65201458  0.30220820  0.17978717     0.35700
C823        C  0.42605401  0.33253412  0.87598902    -0.26000
C824        C  0.42582046  0.31591518  0.84075846    -0.14100
C825        C  0.41511683  0.28791019  0.84276545     0.36500
C826        C  0.40431296  0.27741225  0.87947507    -0.25500
C827        C  0.40357341  0.29446618  0.91437041    -0.14700
C828        C  0.41493080  0.32225049  0.91245131     0.37600
N829        N  0.41512574  0.34032198  0.94731689    -0.89000
H830        H  0.43417814  0.35408291  0.87510959     0.18700
H831        H  0.39589540  0.25597734  0.88033970     0.37900
N832        N  0.41511951  0.27001353  0.80772846    -0.88000
H833        H  0.40358230  0.35864908  0.94032388     0.36100
H834        H  0.43627111  0.34628114  0.95326646     0.41200
H835        H  0.39404021  0.26371232  0.80190907     0.40800
H836        H  0.42698504  0.25186510  0.81447572     0.35700
C837        C  0.35874216  0.17243286  0.11291882    -0.26000
C838        C  0.37389727  0.17872953  0.07740050    -0.14100
C839        C  0.39717744  0.16136911  0.06670331     0.36500
C840        C  0.40721133  0.14095310  0.09413183    -0.25500
C841        C  0.39438595  0.13734631  0.13225563    -0.14700
C842        C  0.36858209  0.15201695  0.14027587     0.37600
N843        N  0.35234962  0.14759045  0.17640060    -0.89000
H844        H  0.34010520  0.18477762  0.12099029     0.18700
H845        H  0.42635437  0.12926004  0.08647911     0.18700
N846        N  0.41166569  0.16528593  0.02901006    -0.88000
H847        H  0.36416762  0.15459776  0.20131164     0.36100
H848        H  0.34795671  0.12589911  0.17921063     0.41200
H849        H  0.41092558  0.14609081  0.01316252     0.40800
H850        H  0.43309760  0.17006060  0.03514821     0.35700
C851        C  0.45605022  0.29459923  0.16858672    -0.26000
C852        C  0.46016112  0.32408965  0.17030717    -0.14100
C853        C  0.44191415  0.34189205  0.14748900     0.36500
C854        C  0.42110441  0.32972638  0.12189674    -0.25500
C855        C  0.41834266  0.30021508  0.11828290    -0.14700
C856        C  0.43547591  0.28246178  0.14270132     0.37600
N857        N  0.43227310  0.25213478  0.14060323    -0.89000
H858        H  0.46977683  0.28083886  0.18619396     0.18700
H859        H  0.40780274  0.34333663  0.10340934     0.18700
N860        N  0.44493565  0.37221390  0.14966471    -0.88000
H861        H  0.41178761  0.24708523  0.15102631     0.36100
H862        H  0.44672197  0.24212807  0.16004281     0.41200
H863        H  0.43969671  0.37841009  0.17908755     0.40800
H864        H  0.43030503  0.38215363  0.13042059     0.35700
C865        C  0.58956543  0.62321774  0.16912177    -0.26000
C866        C  0.56492549  0.63427847  0.18729026    -0.14100
C867        C  0.55140098  0.65789148  0.16934162     0.36500
C868        C  0.56242664  0.66956014  0.13343156    -0.25500
C869        C  0.58655536  0.65781977  0.11466377    -0.14700
C870        C  0.60038035  0.63462674  0.13317519     0.37600
N871        N  0.62572145  0.62273567  0.11590808    -0.89000
H872        H  0.60048634  0.60533725  0.18264955     0.18700
H873        H  0.55168910  0.68749693  0.11977231     0.18700
N874        N  0.52667877  0.67030197  0.18757255    -0.88000
H875        H  0.62184138  0.60125607  0.11004216     0.36100
H876        H  0.64213626  0.62413860  0.13735688     0.41200
H877        H  0.50997903  0.66964549  0.16648774     0.40800
H878        H  0.53127256  0.69158209  0.19383202     0.35700
C879        C  0.56359870  0.49113841  0.27598764    -0.26000
C880        C  0.53735818  0.50526735  0.27975226    -0.14100
C881        C  0.51175906  0.48979183  0.27467858     0.36500
C882        C  0.51276828  0.46089969  0.26461984    -0.25500
C883        C  0.53898586  0.44690464  0.25946780    -0.14700
C884        C  0.56462995  0.46221281  0.26572934     0.37600
N885        N  0.59176570  0.44845601  0.26228411    -0.89000
H886        H  0.58345764  0.50270567  0.28022044     0.18700
H887        H  0.49283240  0.44943670  0.26056323     0.18700
N888        N  0.48464188  0.50318247  0.28057585    -0.88000
H889        H  0.60248157  0.45053572  0.28993430     0.36100
H890        H  0.60369023  0.45909675  0.24028726     0.41200
H891        H  0.47384745  0.49232908  0.30353298     0.40800
H892        H  0.47276494  0.50103214  0.25392046     0.35700
C893        C  0.39195643  0.63562693  0.61522927    -0.26000
C894        C  0.40321072  0.66198465  0.60348103    -0.14100
C895        C  0.42518324  0.67445149  0.62714039     0.36500
C896        C  0.43419402  0.66089207  0.66306681    -0.25500
C897        C  0.42174743  0.63516172  0.67564527    -0.14700
C898        C  0.40098879  0.62218188  0.65069951     0.37600
N899        N  0.38908984  0.59510527  0.66101489    -0.89000
H900        H  0.37550934  0.62544628  0.59710942     0.18700
H901        H  0.45051017  0.67076839  0.68174575     0.18700
N902        N  0.43831293  0.70061542  0.61467361    -0.88000
H903        H  0.39324649  0.58104736  0.63726049     0.36100
H904        H  0.36693266  0.59731335  0.66343849     0.41200
H905        H  0.44894102  0.69672854  0.58747175     0.40800
H906        H  0.45395879  0.70693964  0.63552780     0.35700
C907        C  0.43208777  0.67301799  0.37580933    -0.26000
C908        C  0.41591143  0.65587539  0.40181812    -0.14100
C909        C  0.41913801  0.62615811  0.40015487     0.36500
C910        C  0.43963231  0.61440635  0.37397726    -0.25500
C911        C  0.45724436  0.63172019  0.34984916    -0.14700
C912        C  0.45250835  0.66136686  0.34962079     0.37600
N913        N  0.46920934  0.67976947  0.32424126    -0.89000
H914        H  0.42923497  0.69581639  0.37661858     0.18700
H915        H  0.44288350  0.59166954  0.37408614     0.18700
N916        N  0.40283365  0.60812233  0.42654831    -0.88000
H917        H  0.46388920  0.70101948  0.32917387     0.36100
H918        H  0.46365806  0.67527131  0.29425705     0.41200
H919        H  0.40931106  0.61248377  0.45621554     0.40800
H920        H  0.40761270  0.58679309  0.42124631     0.35700
C921        C  0.56283215  0.81868787  0.60548252    -0.26000
C922        C  0.58299997  0.79666860  0.60524628    -0.14100
C923        C  0.59353943  0.78631731  0.64254142     0.36500
C924        C  0.58367722  0.79790630  0.67877539    -0.25500
C925        C  0.56351638  0.81987666  0.67914145    -0.14700
C926        C  0.55303673  0.83036873  0.64202569     0.37600
N927        N  0.53343748  0.85363023  0.64116926    -0.89000
H928        H  0.55487861  0.82713910  0.57714495     0.18700
H929        H  0.59222296  0.78983819  0.70698839     0.18700
N930        N  0.61532499  0.76508227  0.64472106    -0.88000
H931        H  0.51509750  0.84711858  0.62555202     0.36100
H932        H  0.54289150  0.87017647  0.62484803     0.41200
H933        H  0.63305815  0.77198504  0.62815155     0.40800
H934        H  0.60745773  0.74627557  0.63215628     0.35700
C935        C  0.58325926  0.66534224  0.45824360    -0.26000
C936        C  0.60683815  0.68162727  0.44576297    -0.14100
C937        C  0.62181655  0.67341303  0.41060814     0.36500
C938        C  0.61118149  0.65131349  0.38653836    -0.25500
C939        C  0.58579304  0.63714272  0.39668420    -0.14700
C940        C  0.57259676  0.64321842  0.43401640     0.37600
N941        N  0.54721553  0.62845397  0.44614506    -0.89000
H942        H  0.57182337  0.67095956  0.48554218     0.18700
H943        H  0.62189784  0.64651039  0.35834041     0.18700
N944        N  0.64678656  0.68853531  0.39764112    -0.88000
H945        H  0.53085706  0.64330024  0.44963200     0.36100
H946        H  0.55111215  0.61917627  0.47432660     0.41200
H947        H  0.64275100  0.69685799  0.36889468     0.40800
H948        H  0.66358356  0.67406971  0.39520339     0.35700
C949        C  0.41511505  0.79368678  0.18150311    -0.26000
C950        C  0.42854669  0.82043244  0.18069095    -0.14100
C951        C  0.43308945  0.83357356  0.14289987     0.36500
C952        C  0.42285115  0.82066099  0.10740598    -0.25500
C953        C  0.40818699  0.79458875  0.10834176    -0.14700
C954        C  0.40507456  0.78063101  0.14603311     0.37600
N955        N  0.39100699  0.75372746  0.14969149    -0.89000
H956        H  0.41172728  0.78300356  0.21009560     0.18700
H957        H  0.42600470  0.83150165  0.07887716     0.18700
N958        N  0.44757586  0.86032546  0.14023839    -0.88000
H959        H  0.40220091  0.73878943  0.13260964     0.36100
H960        H  0.37018669  0.75552392  0.13843780     0.41200
H961        H  0.43379175  0.87481203  0.12643367     0.40800
H962        H  0.46538464  0.85778447  0.12154364     0.35700
C963        C  0.41896435  0.96877881  0.27120911    -0.26000
C964        C  0.44517745  0.95469930  0.27595153    -0.14100
C965        C  0.47089007  0.97037739  0.27264942     0.36500
C966        C  0.46980554  0.99928838  0.26295724    -0.25500
C967        C  0.44369057  0.01330454  0.25686386    -0.14700
C968        C  0.41787988  0.99784809  0.26146663     0.37600
N969        N  0.39068846  0.01148699  0.25617569    -0.89000
H970        H  0.39920009  0.95688920  0.27402311     0.18700
H971        H  0.48970277  0.01095707  0.26022372     0.18700
N972        N  0.49810455  0.95702123  0.27935353    -0.88000
H973        H  0.37395442  0.99744462  0.26264148     0.36100
H974        H  0.38867163  0.01658613  0.22555006     0.41200
H975        H  0.49901189  0.95105333  0.30977891     0.40800
H976        H  0.51488764  0.97137593  0.27485501     0.35700
C977        C  0.40861655  0.82265558  0.42844537    -0.26000
C978        C  0.39538701  0.82680600  0.39071083    -0.14100
C979        C  0.37006220  0.81158499  0.38174503     0.36500
C980        C  0.36111423  0.78983606  0.40799057    -0.25500
C981        C  0.37667472  0.78316555  0.44323673    -0.14700
C982        C  0.39973383  0.80108870  0.45457588     0.37600
N983        N  0.41572924  0.79708700  0.49111071    -0.89000
H984        H  0.42751696  0.83479791  0.43651927     0.18700
H985        H  0.34274456  0.77701605  0.39961725     0.18700
N986        N  0.35441189  0.81708688  0.34511685    -0.88000
H987        H  0.42571683  0.77731770  0.49015936     0.36100
H988        H  0.40166954  0.79788437  0.51560465     0.41200
H989        H  0.34631773  0.83767724  0.34721138     0.40800
H990        H  0.33672320  0.80354986  0.34268442     0.35700
C991        C  0.53584794  0.80549814  0.34238928    -0.26000
C992        C  0.52998775  0.83456700  0.34559042    -0.14100
C993        C  0.54715309  0.85155472  0.37144039     0.36500
C994        C  0.56789461  0.83856518  0.39622724    -0.25500
C995        C  0.57160946  0.80903064  0.39579722    -0.14700
C996        C  0.55622812  0.79261742  0.36737113     0.37600
N997        N  0.56070660  0.76263934  0.36443184    -0.89000
H998        H  0.52332670  0.79223746  0.32216811     0.18700
H999        H  0.58002814  0.85134098  0.41751616     0.18700
N1000       N  0.54288805  0.88170574  0.37340300    -0.88000
H1001       H  0.56682851  0.75797272  0.33479421     0.36100
H1002       H  0.54121926  0.75241663  0.36997294     0.41200
H1003       H  0.54810370  0.89007357  0.34508511     0.40800
H1004       H  0.55696691  0.89097248  0.39423490     0.35700
C1005       C  0.91101421  0.62081751  0.87375783    -0.26000
C1006       C  0.92153236  0.63963396  0.84438191    -0.14100
C1007       C  0.92277535  0.66894494  0.85368812     0.36500
C1008       C  0.91276896  0.67864714  0.89142717    -0.25500
C1009       C  0.90153622  0.65988546  0.92037533    -0.14700
C1010       C  0.90076494  0.63050756  0.91127441     0.37600
N1011       N  0.88886243  0.61054902  0.93950973    -0.89000
H1012       H  0.91001928  0.59833766  0.86702836     0.18700
H1013       H  0.91354145  0.70113904  0.89809462     0.18700
N1014       N  0.93332599  0.68896191  0.82451146    -0.88000
H1015       H  0.89095629  0.58978454  0.92883177     0.36100
H1016       H  0.86689217  0.61444514  0.94116744     0.41200
H1017       H  0.95529081  0.68555306  0.82151926     0.40800
H1018       H  0.93107273  0.70973724  0.83511858     0.35700
C1019       C  0.91843215  0.79418543  0.39099632    -0.26000
C1020       C  0.90260509  0.81130596  0.41752592    -0.14100
C1021       C  0.89844099  0.84015045  0.40741329     0.36500
C1022       C  0.90948521  0.85096366  0.37108929    -0.25500
C1023       C  0.92479688  0.83368867  0.34421602    -0.14700
C1024       C  0.92952234  0.80505764  0.35468383     0.37600
N1025       N  0.94482092  0.78661490  0.32803416    -0.89000
H1026       H  0.92198819  0.77205494  0.39813477     0.18700
H1027       H  0.90571138  0.87302949  0.36371810     0.18700
N1028       N  0.88256188  0.85855855  0.43344498    -0.88000
H1029       H  0.93134265  0.76971379  0.32021009     0.36100
H1030       H  0.96232043  0.77841170  0.34383462     0.41200
H1031       H  0.86524102  0.86658921  0.41705326     0.40800
H1032       H  0.89577524  0.87558047  0.44160133     0.35700
C1033       C  0.75561397  0.77707692  0.54791946    -0.26000
C1034       C  0.77237284  0.77733793  0.51277740    -0.14100
C1035       C  0.75878588  0.77600897  0.47462336     0.36500
C1036       C  0.72883661  0.77399379  0.47256997    -0.25500
C1037       C  0.71200963  0.77363888  0.50769912    -0.14700
C1038       C  0.72579396  0.77506340  0.54590233     0.37600
N1039       N  0.71027796  0.77499185  0.58319127    -0.89000
H1040       H  0.76579086  0.77795771  0.57739575     0.18700
H1041       H  0.71856730  0.77277287  0.44319942     0.18700
N1042       N  0.77532251  0.77721334  0.43807737    -0.88000
H1043       H  0.69922158  0.75574166  0.58581294     0.36100
H1044       H  0.69572411  0.79171480  0.58287287     0.41200
H1045       H  0.78492514  0.79725550  0.43684627     0.40800
H1046       H  0.76206107  0.77563750  0.41264183     0.35700
C1047       C  0.85861513  0.68352189  0.60931747    -0.26000
C1048       C  0.87430066  0.68929116  0.57404860    -0.14100
C1049       C  0.89661658  0.67078194  0.56316514     0.36500
C1050       C  0.90473868  0.64895427  0.58973095    -0.25500
C1051       C  0.89137223  0.64565664  0.62754438    -0.14700
C1052       C  0.86711943  0.66222643  0.63626095     0.37600
N1053       N  0.85190356  0.65861491  0.67343837    -0.89000
H1054       H  0.84091700  0.69701148  0.61785821     0.18700
H1055       H  0.92305475  0.63604923  0.58200634     0.18700
N1056       N  0.91199903  0.67483626  0.52622254    -0.88000
H1057       H  0.83053925  0.65416698  0.66648042     0.36100
H1058       H  0.85261682  0.67784041  0.68926211     0.41200
H1059       H  0.91040315  0.65616247  0.50926187     0.40800
H1060       H  0.93355609  0.67810126  0.53339105     0.35700
C1061       C  0.07691426  0.84361280  0.87248834    -0.26000
C1062       C  0.06228602  0.82570559  0.84544604    -0.14100
C1063       C  0.05928281  0.79670740  0.85520099     0.36500
C1064       C  0.07044568  0.78638197  0.89186244    -0.25500
C1065       C  0.08515622  0.80435821  0.91884595    -0.14700
C1066       C  0.08852365  0.83326109  0.90863719     0.37600
N1067       N  0.10449148  0.85214654  0.93418202    -0.89000
H1068       H  0.07981350  0.86586501  0.86534627     0.18700
H1069       H  0.06790573  0.76407663  0.89890341     0.18700
N1070       N  0.04588011  0.77742908  0.82744338    -0.88000
H1071       H  0.09119718  0.86896954  0.94232587     0.36100
H1072       H  0.12152433  0.86038582  0.91739920     0.41200
H1073       H  0.02874084  0.76769901  0.84217336     0.40800
H1074       H  0.06071544  0.76170372  0.81999846     0.35700
C1075       C  0.94347930  0.81034342  0.68432231    -0.26000
C1076       C  0.95164377  0.83892870  0.68069788    -0.14100
C1077       C  0.93622350  0.85649756  0.65346612     0.36500
C1078       C  0.91574498  0.84442616  0.62755212    -0.25500
C1079       C  0.91049207  0.81514420  0.62777746    -0.14700
C1080       C  0.92325361  0.79832136  0.65797127     0.37600
N1081       N  0.91614524  0.76883940  0.66143201    -0.89000
H1082       H  0.95420586  0.79666869  0.70582380     0.18700
H1083       H  0.90533891  0.85774272  0.60528084     0.18700
N1084       N  0.94103801  0.88646722  0.65084052    -0.88000
H1085       H  0.90820219  0.76532439  0.69054226     0.36100
H1086       H  0.93492400  0.75710607  0.65825988     0.41200
H1087       H  0.96151333  0.89029171  0.63949786     0.40800
H1088       H  0.93931852  0.89520535  0.67978004     0.35700
C1089       C  0.09169243  0.62788920  0.35866809    -0.26000
C1090       C  0.06841797  0.64061428  0.33892029    -0.14100
C1091       C  0.05553451  0.66469938  0.35664178     0.36500
C1092       C  0.06552651  0.67470489  0.39433526    -0.25500
C1093       C  0.08825116  0.66137148  0.41453445    -0.14700
C1094       C  0.10166945  0.63787102  0.39595650     0.37600
N1095       N  0.12605635  0.62418638  0.41344431    -0.89000
H1096       H  0.10217333  0.60972240  0.34523317     0.18700
H1097       H  0.05546667  0.69298724  0.40807939     0.18700
N1098       N  0.03273862  0.67920962  0.33615437    -0.88000
H1099       H  0.12011580  0.61492022  0.44080826     0.36100
H1100       H  0.14196381  0.63943749  0.41874035     0.41200
H1101       H  0.04122298  0.68792078  0.30969629     0.40800
H1102       H  0.02545166  0.69625614  0.35351242     0.35700
C1103       C  0.22448808  0.69039808  0.47894689    -0.26000
C1104       C  0.21252719  0.68883325  0.51773700    -0.14100
C1105       C  0.23076918  0.68846574  0.55186585     0.36500
C1106       C  0.26057125  0.68983031  0.54630560    -0.25500
C1107       C  0.27252426  0.69124271  0.50743116    -0.14700
C1108       C  0.25407991  0.69146709  0.47340054     0.37600
N1109       N  0.26459892  0.69389023  0.43290269    -0.89000
H1110       H  0.21068585  0.69091125  0.45255789     0.18700
H1111       H  0.27456187  0.68983860  0.57248991     0.18700
N1112       N  0.21904934  0.68743684  0.59199342    -0.88000
H1113       H  0.27692785  0.67609706  0.42625606     0.36100
H1114       H  0.27736111  0.71212336  0.43093331     0.41200
H1115       H  0.20786299  0.70631120  0.59676066     0.40800
H1116       H  0.23538170  0.68694678  0.61363154     0.35700
C1117       C  0.11057288  0.80307401  0.64931300    -0.26000
C1118       C  0.08729322  0.81960770  0.63677932    -0.14100
C1119       C  0.07746841  0.81709948  0.59641228     0.36500
C1120       C  0.08858770  0.79556208  0.57149651    -0.25500
C1121       C  0.10981607  0.77701589  0.58565915    -0.14700
C1122       C  0.12227535  0.78217901  0.62407170     0.37600
N1123       N  0.14585838  0.76536316  0.63822904    -0.89000
H1124       H  0.11893661  0.80558695  0.67970941     0.18700
H1125       H  0.07952055  0.79233372  0.54164913     0.18700
N1126       N  0.05516207  0.83522481  0.58152158    -0.88000
H1127       H  0.15193567  0.77141774  0.66746260     0.36100
H1128       H  0.16331527  0.76973038  0.61953484     0.41200
H1129       H  0.04974786  0.82988953  0.55174982     0.40800
H1130       H  0.06343370  0.85584264  0.58053733     0.35700
C1131       C  0.04102544  0.61636814  0.65376569    -0.26000
C1132       C  0.02270578  0.63541168  0.67367640    -0.14100
C1133       C  0.02738060  0.66490431  0.66927591     0.36500
C1134       C  0.04897925  0.67448998  0.64330400    -0.25500
C1135       C  0.06602531  0.65548273  0.62142822    -0.14700
C1136       C  0.06285675  0.62608819  0.62797110     0.37600
N1137       N  0.08063135  0.60619635  0.60685497    -0.89000
H1138       H  0.03774124  0.59375245  0.65735458     0.18700
H1139       H  0.05178820  0.69710735  0.63889198     0.18700
N1140       N  0.00937695  0.68513733  0.68940049    -0.88000
H1141       H  0.07446540  0.58538624  0.61347839     0.36100
H1142       H  0.10143149  0.60856274  0.61809157     0.41200
H1143       H  0.98914743  0.68396834  0.67593327     0.40800
H1144       H  0.01673792  0.70582599  0.68455768     0.35700
C1145       C  0.93537634  0.33279792  0.64047624    -0.26000
C1146       C  0.93007615  0.31860223  0.67697153    -0.14100
C1147       C  0.91595281  0.29210434  0.67580131     0.36500
C1148       C  0.90555567  0.28148097  0.63882053    -0.25500
C1149       C  0.90902787  0.29673063  0.60264742    -0.14700
C1150       C  0.92514002  0.32229753  0.60359038     0.37600
N1151       N  0.93177546  0.33808271  0.56780690    -0.89000
H1152       H  0.94674289  0.35287392  0.64061798     0.18700
H1153       H  0.89399035  0.26151771  0.63871720     0.18700
N1154       N  0.91220544  0.27580278  0.71192681    -0.88000
H1155       H  0.91290757  0.34590009  0.55519563     0.36100
H1156       H  0.94182680  0.32459840  0.54715184     0.41200
H1157       H  0.92207455  0.25615760  0.70766978     0.40800
H1158       H  0.89032216  0.27217835  0.71586175     0.35700
C1159       C  0.91782345  0.47055922  0.76240699    -0.26000
C1160       C  0.94332235  0.45541548  0.75632395    -0.14100
C1161       C  0.96734529  0.47001033  0.74064452     0.36500
C1162       C  0.96592066  0.49928675  0.73362771    -0.25500
C1163       C  0.94067308  0.51442035  0.74050299    -0.14700
C1164       C  0.91627615  0.49980327  0.75438385     0.37600
N1165       N  0.89017224  0.51471927  0.76169183    -0.89000
H1166       H  0.89905328  0.45980039  0.77399135     0.18700
H1167       H  0.98470384  0.51021122  0.72233615     0.18700
N1168       N  0.99329728  0.45530372  0.73155716    -0.88000
H1169       H  0.88469697  0.51197453  0.79207393     0.36100
H1170       H  0.87413037  0.50541400  0.74396391     0.41200
H1171       H  0.00983934  0.46453650  0.74838855     0.40800
H1172       H  0.99780440  0.45827213  0.70087237     0.35700
C1173       C  0.92104756  0.18432569  0.12291578    -0.26000
C1174       C  0.90584576  0.16682784  0.09586056    -0.14100
C1175       C  0.90027583  0.13843456  0.10689921     0.36500
C1176       C  0.90947005  0.12827176  0.14452312    -0.25500
C1177       C  0.92449872  0.14569808  0.17177954    -0.14700
C1178       C  0.93057232  0.17399637  0.16052164     0.37600
N1179       N  0.94598270  0.19249564  0.18726447    -0.89000
H1180       H  0.92555912  0.20617305  0.11493059     0.18700
H1181       H  0.90467927  0.10646660  0.15238948     0.18700
N1182       N  0.88460869  0.11989058  0.08049269    -0.88000
H1183       H  0.93313403  0.21006840  0.19333873     0.36100
H1184       H  0.96427711  0.19965165  0.17220269     0.41200
H1185       H  0.86643203  0.11287545  0.09571450     0.40800
H1186       H  0.89742146  0.10220790  0.07428510     0.35700
C1187       C  0.75983619  0.19502289  0.96988029    -0.26000
C1188       C  0.77775308  0.18855691  0.00257243    -0.14100
C1189       C  0.76547375  0.18127022  0.04014805     0.36500
C1190       C  0.73547585  0.18130880  0.04428903    -0.25500
C1191       C  0.71750791  0.18899207  0.01191989    -0.14700
C1192       C  0.73013171  0.19570437  0.97413626     0.37600
N1193       N  0.71353577  0.20316484  0.93928693    -0.89000
H1194       H  0.76904967  0.20065246  0.94092549     0.18700
H1195       H  0.72612934  0.17591935  0.07323368     0.18700
N1196       N  0.78342660  0.17385367  0.07386189    -0.88000
H1197       H  0.70282148  0.22214443  0.94501662     0.36100
H1198       H  0.69871367  0.18699179  0.93352012     0.41200
H1199       H  0.79418095  0.15520691  0.06629012     0.40800
H1200       H  0.77104269  0.16921248  0.09932551     0.35700
C1201       C  0.86377784  0.29329175  0.90375033    -0.26000
C1202       C  0.87984894  0.28594831  0.93815636    -0.14100
C1203       C  0.90356045  0.30303089  0.94908025     0.36500
C1204       C  0.91244781  0.32484799  0.92296625    -0.25500
C1205       C  0.89841128  0.32983079  0.88598021    -0.14700
C1206       C  0.87280306  0.31492323  0.87746171     0.37600
N1207       N  0.85709313  0.32032896  0.84084974    -0.89000
H1208       H  0.84512112  0.28080198  0.89566801     0.18700
H1209       H  0.93172470  0.33663091  0.93025552     0.18700
N1210       N  0.91965951  0.29711921  0.98519032    -0.88000
H1211       H  0.84898486  0.34090968  0.84282618     0.36100
H1212       H  0.83943969  0.30674076  0.83840756     0.41200
H1213       H  0.90631814  0.30109972  0.00983807     0.40800
H1214       H  0.93704940  0.31100988  0.98798294     0.35700
C1215       C  0.05997525  0.16087139  0.65648260    -0.26000
C1216       C  0.06966627  0.13416290  0.66952710    -0.14100
C1217       C  0.08860228  0.11897511  0.64403749     0.36500
C1218       C  0.09769702  0.13089660  0.60739483    -0.25500
C1219       C  0.08882959  0.15799450  0.59509836    -0.14700
C1220       C  0.06925564  0.17290883  0.61968374     0.37600
N1221       N  0.05865286  0.20010746  0.60716936    -0.89000
H1222       H  0.04528449  0.17264505  0.67534188     0.18700
H1223       H  0.11244135  0.11899170  0.58876374     0.18700
N1224       N  0.09879394  0.09124039  0.65404004    -0.88000
H1225       H  0.04470778  0.20838571  0.62880525     0.36100
H1226       H  0.04655329  0.19695942  0.58088996     0.41200
H1227       H  0.08120904  0.07791402  0.65895690     0.40800
H1228       H  0.11111348  0.09251872  0.68036350     0.35700
C1229       C  0.01371893  0.96685783  0.75766979    -0.26000
C1230       C  0.03956759  0.95199719  0.75468818    -0.14100
C1231       C  0.06562781  0.96662081  0.76100623     0.36500
C1232       C  0.06518625  0.99587548  0.76945459    -0.25500
C1233       C  0.03931582  0.01085984  0.77153469    -0.14700
C1234       C  0.01334328  0.99602674  0.76583009     0.37600
N1235       N  0.98645994  0.01033610  0.76876879    -0.89000
H1236       H  0.99357067  0.95583747  0.75316104     0.18700
H1237       H  0.08520999  0.00709250  0.77394774     0.18700
N1238       N  0.09238500  0.95175636  0.75930673    -0.88000
H1239       H  0.97448206  0.00053060  0.79149460     0.36100
H1240       H  0.97553950  0.00762727  0.74138842     0.41200
H1241       H  0.09271188  0.93729885  0.78324890     0.40800
H1242       H  0.10950343  0.96570597  0.76412684     0.35700
C1243       C  0.96148179  0.16574307  0.84264640    -0.26000
C1244       C  0.96250119  0.13618139  0.83785716    -0.14100
C1245       C  0.94101055  0.11938343  0.85606014     0.36500
C1246       C  0.92044339  0.13220064  0.88106794    -0.25500
C1247       C  0.92106401  0.16153337  0.88845121    -0.14700
C1248       C  0.94105598  0.17849106  0.86754039     0.37600
N1249       N  0.94090962  0.20874738  0.87173406    -0.89000
H1250       H  0.97740323  0.17913385  0.82839765     0.18700
H1251       H  0.90481728  0.11896056  0.89621944     0.18700
N1252       N  0.94021296  0.08932164  0.84987407    -0.88000
H1253       H  0.93814947  0.21759044  0.84299440     0.36100
H1254       H  0.96090087  0.21515836  0.88271064     0.41200
H1255       H  0.92035586  0.08407806  0.83721263     0.40800
H1256       H  0.94165524  0.07946853  0.87809611     0.35700
C1257       C  0.05784059  0.34085746  0.14636674    -0.26000
C1258       C  0.06044262  0.32462294  0.18179092    -0.14100
C1259       C  0.07253009  0.29725164  0.17905320     0.36500
C1260       C  0.08253522  0.28716260  0.14172284    -0.25500
C1261       C  0.08082052  0.30376323  0.10660031    -0.14700
C1262       C  0.06762749  0.33069551  0.10883292     0.37600
N1263       N  0.06405648  0.34763992  0.07305883    -0.89000
H1264       H  0.04834791  0.36175166  0.14793400     0.18700
H1265       H  0.09228854  0.26636798  0.14049936     0.18700
N1266       N  0.07501356  0.27959732  0.21409810    -0.88000
H1267       H  0.05437509  0.36698278  0.08002658     0.36100
H1268       H  0.04989367  0.33682337  0.05390218     0.41200
H1269       H  0.09660967  0.27469449  0.21823637     0.40800
H1270       H  0.06392846  0.26069311  0.20844620     0.35700
C1271       C  0.22801200  0.27856090  0.97070859    -0.26000
C1272       C  0.21148783  0.27814385  0.00609483    -0.14100
C1273       C  0.22533983  0.27641215  0.04402809     0.36500
C1274       C  0.25533215  0.27503427  0.04567775    -0.25500
C1275       C  0.27180800  0.27449751  0.01029514    -0.14700
C1276       C  0.25783432  0.27614788  0.97232419     0.37600
N1277       N  0.27323858  0.27560254  0.93494931    -0.89000
H1278       H  0.21760506  0.27964447  0.94141686     0.18700
H1279       H  0.26588752  0.27360059  0.07482098     0.18700
N1280       N  0.20895568  0.27594116  0.08074244    -0.88000
H1281       H  0.28350506  0.25604377  0.93224820     0.36100
H1282       H  0.28858627  0.29176901  0.93543896     0.41200
H1283       H  0.19872744  0.29554273  0.08335548     0.40800
H1284       H  0.22236722  0.27404834  0.10593250     0.35700
C1285       C  0.08510491  0.17110353  0.94999055    -0.26000
C1286       C  0.10703353  0.18962956  0.93762820    -0.14100
C1287       C  0.12165591  0.18365895  0.90122537     0.36500
C1288       C  0.11273287  0.16104099  0.87673577    -0.25500
C1289       C  0.08916768  0.14416016  0.88718890    -0.14700
C1290       C  0.07612145  0.14841668  0.92521272     0.37600
N1291       N  0.05274873  0.13087033  0.93788102    -0.89000
H1292       H  0.07386721  0.17501857  0.97804914     0.18700
H1293       H  0.12333101  0.15782748  0.84799805     0.18700
N1294       N  0.14467793  0.20133555  0.88764269    -0.88000
H1295       H  0.03498501  0.14385734  0.94263502     0.36100
H1296       H  0.05827119  0.12166225  0.96554795     0.41200
H1297       H  0.13908668  0.20969926  0.85943103     0.40800
H1298       H  0.16273009  0.18862023  0.88381233     0.35700
C1299       C  0.04416654  0.35484138  0.87059381    -0.26000
C1300       C  0.02870081  0.33671347  0.84457981    -0.14100
C1301       C  0.03544458  0.30755662  0.84404696     0.36500
C1302       C  0.05526075  0.29678280  0.87180101    -0.25500
C1303       C  0.06939433  0.31458723  0.89942988    -0.14700
C1304       C  0.06482692  0.34411961  0.89761054     0.37600
N1305       N  0.07984041  0.36288665  0.92467705    -0.89000
H1306       H  0.03949780  0.37732878  0.87079787     0.18700
H1307       H  0.05915563  0.27412976  0.87231078     0.18700
N1308       N  0.02150091  0.28850192  0.81648235    -0.88000
H1309       H  0.07292779  0.38375811  0.92078048     0.36100
H1310       H  0.10140964  0.36267107  0.91641870     0.41200
H1311       H  0.01097225  0.27290598  0.83329503     0.40800
H1312       H  0.03722092  0.27858993  0.79908013     0.35700
loop_ 
_geom_bond_atom_site_label_1 
_geom_bond_atom_site_label_2 
_geom_bond_distance 
_geom_bond_site_symmetry_2 
_ccdc_geom_bond_type 
O1            C4   1.268       .  A
O1           Cd6   2.489   1_554  S
C2           O11   1.263       .  A
C2            O7   1.269       .  A
C2         C1286   1.489       .  S
O3            C9   1.264       .  A
O3           Cd6   2.428       .  S
C4           O12   1.265       .  A
C4         C1261   1.488       .  S
C5           O10   1.267   1_554  A
C5            O8   1.265       .  A
C5         C1272   1.481       .  S
Cd6          O13   2.488       .  S
Cd6          O12   2.459   1_556  S
Cd6          O11   2.423       .  S
Cd6           O7   2.499       .  S
Cd6          O10   2.478       .  S
Cd6           O8   2.453   1_556  S
C9           O13   1.268       .  A
C9         C1303   1.478       .  S
O14          C17   1.266   1_455  A
O14         Cd19   2.450       .  S
C15          O24   1.267       .  A
C15          O20   1.264       .  A
C15        C1216   1.498       .  S
O16          C22   1.264       .  A
O16         Cd19   2.450       .  S
C17          O25   1.265       .  A
C17        C1244   1.485       .  S
C18          O23   1.268       .  A
C18          O21   1.266       .  A
C18        C1233   1.483       .  S
Cd19         O26   2.508       .  S
Cd19         O25   2.478   1_455  S
Cd19         O24   2.508       .  S
Cd19         O20   2.487       .  S
Cd19         O23   2.468       .  S
Cd19         O21   2.454       .  S
C22          O26   1.263       .  A
C22        C1289   1.485       .  S
O27          C30   1.268       .  A
O27         Cd32   2.482   1_554  S
C28          O37   1.265       .  A
C28          O33   1.267       .  A
C28        C1202   1.488       .  S
O29          C35   1.262       .  A
O29         Cd32   2.428       .  S
C30          O38   1.266       .  A
C30        C1174   1.485       .  S
C31          O36   1.267       .  A
C31          O34   1.265   1_556  A
C31        C1188   1.481   1_556  S
Cd32         O39   2.510       .  S
Cd32         O38   2.438   1_556  S
Cd32         O37   2.451       .  S
Cd32         O33   2.470       .  S
Cd32         O36   2.468       .  S
Cd32         O34   2.471   1_556  S
C35          O39   1.268       .  A
C35        C1247   1.482       .  S
O40          C43   1.266   1_655  A
O40         Cd45   2.451       .  S
C41          O50   1.264       .  A
C41          O46   1.265       .  A
C41        C1146   1.485       .  S
O42          C48   1.264       .  A
O42         Cd45   2.457       .  S
C43          O51   1.266   1_455  A
C43        C1300   1.486       .  S
C44          O49   1.267       .  A
C44          O47   1.262       .  A
C44        C1160   1.489       .  S
Cd45         O52   2.470       .  S
Cd45         O51   2.473       .  S
Cd45         O50   2.488       .  S
Cd45         O46   2.465       .  S
Cd45         O49   2.505       .  S
Cd45         O47   2.447       .  S
C48          O52   1.266       .  A
C48        C1205   1.488       .  S
O53          C56   1.268       .  A
O53         Cd58   2.484       .  S
C54          O63   1.264       .  A
C54          O59   1.271       .  A
C54        C1121   1.489       .  S
O55          C61   1.263       .  A
O55         Cd58   2.415       .  S
C56          O64   1.264       .  A
C56        C1093   1.483       .  S
C57          O62   1.267       .  A
C57          O60   1.265       .  A
C57        C1104   1.479       .  S
Cd58         O65   2.494       .  S
Cd58         O64   2.444       .  S
Cd58         O63   2.420       .  S
Cd58         O59   2.492       .  S
Cd58         O62   2.469       .  S
Cd58         O60   2.440       .  S
C61          O65   1.268       .  A
C61        C1135   1.480       .  S
O66          C69   1.268       .  A
O66         Cd71   2.486   1_655  S
C67          O76   1.265       .  A
C67          O72   1.268       .  A
C67        C1062   1.484       .  S
O68          C74   1.262       .  A
O68         Cd71   2.492       .  S
C69          O77   1.262       .  A
C69        C1076   1.486       .  S
C70          O75   1.267       .  A
C70          O73   1.265       .  A
C70        C1230   1.480       .  S
Cd71         O78   2.470       .  S
Cd71         O77   2.446   1_455  S
Cd71         O76   2.440       .  S
Cd71         O72   2.484       .  S
Cd71         O75   2.471       .  S
Cd71         O73   2.442       .  S
C74          O78   1.263       .  A
C74        C1118   1.487       .  S
O79          C82   1.268       .  A
O79         Cd84   2.495       .  S
C80          O89   1.264       .  A
C80          O85   1.270       .  A
C80        C1048   1.485       .  S
O81          C87   1.263       .  A
O81         Cd84   2.441       .  S
C82          O90   1.264       .  A
C82        C1020   1.491       .  S
C83          O88   1.267       .  A
C83          O86   1.266       .  A
C83        C1034   1.481       .  S
Cd84         O91   2.499       .  S
Cd84         O90   2.454       .  S
Cd84         O89   2.427       .  S
Cd84         O85   2.487       .  S
Cd84         O88   2.458       .  S
Cd84         O86   2.453       .  S
C87          O91   1.267       .  A
C87        C1079   1.478       .  S
O92          C95   1.265       .  A
O92         Cd97   2.484       .  S
C93         O102   1.265       .  A
C93          O98   1.265       .  A
C93        C1132   1.484   1_655  S
O94         C100   1.268       .  A
O94         Cd97   2.469       .  S
C95         O103   1.265       .  A
C95        C1006   1.494       .  S
C96         O101   1.262       .  A
C96          O99   1.264       .  A
C96        C1051   1.487       .  S
Cd97        O104   2.444       .  S
Cd97        O103   2.489       .  S
Cd97        O102   2.464       .  S
Cd97         O98   2.458       .  S
Cd97        O101   2.486       .  S
Cd97         O99   2.476       .  S
C100        O104   1.267       .  A
C100       C1163   1.479       .  S
O105        C108   1.266       .  A
O105       Cd110   2.474       .  S
C106        O115   1.265       .  A
C106        O111   1.265       .  A
C106        C950   1.490       .  S
O107        C113   1.264       .  A
O107       Cd110   2.446       .  S
C108        O116   1.263       .  A
C108        C992   1.484       .  S
C109        O114   1.267       .  A
C109        O112   1.263       .  A
C109        C964   1.485       .  S
Cd110       O117   2.488       .  S
Cd110       O116   2.464       .  S
Cd110       O115   2.476       .  S
Cd110       O111   2.478       .  S
Cd110       O114   2.497       .  S
Cd110       O112   2.428       .  S
C113        O117   1.266       .  A
C113        C978   1.487       .  S
O118        C121   1.265       .  A
O118       Cd123   2.450       .  S
C119        O128   1.263       .  A
C119        O124   1.268       .  A
C119        C936   1.481       .  S
O120        C126   1.269       .  A
O120       Cd123   2.507       .  S
C121        O129   1.265       .  A
C121        C922   1.479       .  S
C122        O127   1.267       .  A
C122        O125   1.263       .  A
C122       C1037   1.484       .  S
Cd123       O130   2.429       .  S
Cd123       O129   2.466       .  S
Cd123       O128   2.421       .  S
Cd123       O124   2.472       .  S
Cd123       O127   2.462       .  S
Cd123       O125   2.462       .  S
C126        O130   1.263       .  A
C126        C995   1.482       .  S
O131        C134   1.268       .  A
O131       Cd136   2.518       .  S
C132        O141   1.265       .  A
C132        O137   1.268       .  A
C132        C981   1.489       .  S
O133        C139   1.267       .  A
O133       Cd136   2.495       .  S
C134        O142   1.264       .  A
C134        C894   1.487       .  S
C135        O140   1.265       .  A
C135        O138   1.266       .  A
C135       C1107   1.482       .  S
Cd136       O143   2.437       .  S
Cd136       O142   2.435       .  S
Cd136       O141   2.442       .  S
Cd136       O137   2.476       .  S
Cd136       O140   2.456       .  S
Cd136       O138   2.475       .  S
C139        O143   1.264       .  A
C139        C908   1.480       .  S
O144        C147   1.267       .  A
O144       Cd149   2.475       .  S
C145        O154   1.265       .  A
C145        O150   1.266       .  A
C145        C866   1.485       .  S
O146        C152   1.263       .  A
O146       Cd149   2.474       .  S
C147        O155   1.265       .  A
C147        C911   1.489       .  S
C148        O153   1.266       .  A
C148        O151   1.265       .  A
C148        C880   1.481       .  S
Cd149       O156   2.443       .  S
Cd149       O155   2.457       .  S
Cd149       O154   2.450       .  S
Cd149       O150   2.482       .  S
Cd149       O153   2.481       .  S
Cd149       O151   2.457       .  S
C152        O156   1.263       .  A
C152        C939   1.478       .  S
O157        C160   1.268       .  A
O157       Cd162   2.485   1_556  S
C158        O167   1.266       .  A
C158        O163   1.268       .  A
C158        C838   1.487       .  S
O159        C165   1.263       .  A
O159       Cd162   2.428       .  S
C160        O168   1.264       .  A
C160        C827   1.487       .  S
C161        O166   1.267       .  A
C161        O164   1.264   1_554  A
C161       C1275   1.481       .  S
Cd162       O169   2.499       .  S
Cd162       O168   2.446   1_554  S
Cd162       O167   2.449       .  S
Cd162       O163   2.469       .  S
Cd162       O166   2.468       .  S
Cd162       O164   2.461   1_554  S
C165        O169   1.269       .  A
C165        C855   1.481       .  S
O170        C173   1.268       .  A
O170       Cd175   2.487       .  S
C171        O180   1.267       .  A
C171        O176   1.263       .  A
C171        C799   1.480       .  S
O172        C178   1.264       .  A
O172       Cd175   2.467       .  S
C173        O181   1.264       .  A
C173        C852   1.486       .  S
C174        O179   1.265       .  A
C174        O177   1.262       .  A
C174        C883   1.485       .  S
Cd175       O182   2.478       .  S
Cd175       O181   2.447       .  S
Cd175       O180   2.492       .  S
Cd175       O176   2.443       .  S
Cd175       O179   2.488       .  S
Cd175       O177   2.464       .  S
C178        O182   1.264       .  A
C178        C810   1.487       .  S
O183        C186   1.266       .  A
O183       Cd188   2.468       .  S
C184        O193   1.264       .  A
C184        O189   1.265       .  A
C184        C768   1.492       .  S
O185        C191   1.264       .  A
O185       Cd188   2.476       .  S
C186        O194   1.264       .  A
C186        C782   1.479       .  S
C187        O192   1.266       .  A
C187        O190   1.265       .  A
C187        C967   1.489       .  S
Cd188       O195   2.471       .  S
Cd188       O194   2.466       .  S
Cd188       O193   2.474       .  S
Cd188       O189   2.479       .  S
Cd188       O192   2.487       .  S
Cd188       O190   2.441       .  S
C191        O195   1.264       .  A
C191        C841   1.490       .  S
O196        C199   1.266       .  A
O196       Cd201   2.492   1_556  S
C197        O206   1.266       .  A
C197        O202   1.268       .  A
C197        C813   1.485       .  S
O198        C204   1.262       .  A
O198       Cd201   2.400       .  S
C199        O207   1.265       .  A
C199        C757   1.478       .  S
C200        O205   1.269       .  A
C200        O203   1.265   1_554  A
C200       C1191   1.489       .  S
Cd201       O208   2.517       .  S
Cd201       O207   2.443   1_554  S
Cd201       O206   2.438       .  S
Cd201       O202   2.475       .  S
Cd201       O205   2.491       .  S
Cd201       O203   2.442   1_554  S
C204        O208   1.269       .  A
C204        C785   1.483       .  S
O209        C212   1.266       .  A
O209       Cd214   2.479       .  S
C210        O219   1.263       .  A
C210        O215   1.266       .  A
C210        C796   1.481       .  S
O211        C217   1.264       .  A
O211       Cd214   2.420       .  S
C212        O220   1.265       .  A
C212        C740   1.488       .  S
C213        O218   1.267       .  A
C213        O216   1.263       .  A
C213        C712   1.485       .  S
Cd214       O221   2.491       .  S
Cd214       O220   2.456       .  S
Cd214       O219   2.465       .  S
Cd214       O215   2.464       .  S
Cd214       O218   2.487       .  S
Cd214       O216   2.453       .  S
C217        O221   1.268       .  A
C217        C726   1.479       .  S
O222        C225   1.264       .  A
O222       Cd227   2.437       .  S
C223        O232   1.265       .  A
C223        O228   1.267       .  A
C223        C754   1.488       .  S
O224        C230   1.265       .  A
O224       Cd227   2.475       .  S
C225        O233   1.267       .  A
C225        C698   1.485       .  S
C226        O231   1.264       .  A
C226        O229   1.264       .  A
C226        C743   1.481       .  S
Cd227       O234   2.459       .  S
Cd227       O233   2.464       .  S
Cd227       O232   2.429       .  S
Cd227       O228   2.497       .  S
Cd227       O231   2.476       .  S
Cd227       O229   2.462       .  S
C230        O234   1.264       .  A
C230        C684   1.485       .  S
O235        C238   1.264       .  A
O235       Cd240   2.478       .  S
C236        O245   1.264       .  A
C236        O241   1.266       .  A
C236        C729   1.482       .  S
O237        C243   1.262       .  A
O237       Cd240   2.439       .  S
C238        O246   1.265       .  A
C238        C824   1.484       .  S
C239        O244   1.266       .  A
C239        O242   1.264       .  A
C239        C656   1.481       .  S
Cd240       O247   2.479       .  S
Cd240       O246   2.458       .  S
Cd240       O245   2.445       .  S
Cd240       O241   2.465       .  S
Cd240       O244   2.465       .  S
Cd240       O242   2.449       .  S
C243        O247   1.267       .  A
C243        C673   1.482       .  S
O248        C251   1.268       .  A
O248       Cd253   2.486       .  S
C249        O258   1.266       .  A
C249        O254   1.268       .  A
C249        C771   1.492       .  S
O250        C256   1.269       .  A
O250       Cd253   2.499       .  S
C251        O259   1.262       .  A
C251        C670   1.486       .  S
C252        O257   1.267       .  A
C252        O255   1.263       .  A
C252        C645   1.482       .  S
Cd253       O260   2.425       .  S
Cd253       O259   2.440       .  S
Cd253       O258   2.457       .  S
Cd253       O254   2.479       .  S
Cd253       O257   2.477       .  S
Cd253       O255   2.449       .  S
C256        O260   1.264       .  A
C256        C701   1.486       .  S
O261        C264   1.267       .  A
O261       Cd266   2.489   1_556  S
C262        O271   1.265       .  A
C262        O267   1.268       .  A
C262        C617   1.488       .  S
O263        C269   1.265       .  A
O263       Cd266   2.464       .  S
C264        O272   1.264       .  A
C264       C1065   1.486       .  S
C265        O270   1.263       .  A
C265        O268   1.267       .  A
C265        C628   1.486       .  S
Cd266       O273   2.474   1_554  S
Cd266       O272   2.440   1_554  S
Cd266       O271   2.442       .  S
Cd266       O267   2.492       .  S
Cd266       O270   2.432       .  S
Cd266       O268   2.513       .  S
C269        O273   1.265   1_554  A
C269        C600   1.481       .  S
O274        C277   1.267       .  A
O274       Cd279   2.491       .  S
C275        O284   1.267       .  A
C275        O280   1.266       .  A
C275        C586   1.488       .  S
O276        C282   1.264       .  A
O276       Cd279   2.513       .  S
C277        O285   1.265       .  A
C277       C1090   1.487       .  S
C278        O283   1.265       .  A
C278        O281   1.264       .  A
C278        C572   1.486       .  S
Cd279       O286   2.441       .  S
Cd279       O285   2.452       .  S
Cd279       O284   2.457   1_455  S
Cd279       O280   2.464   1_455  S
Cd279       O283   2.470       .  S
Cd279       O281   2.450       .  S
C282        O286   1.261       .  A
C282        C614   1.487       .  S
O287        C290   1.266   1_655  A
O287       Cd292   2.450       .  S
C288        O297   1.265       .  A
C288        O293   1.265       .  A
C288       C1023   1.488       .  S
O289        C295   1.268       .  A
O289       Cd292   2.465       .  S
C290        O298   1.266   1_455  A
C290        C631   1.488       .  S
C291        O296   1.262       .  A
C291        O294   1.264       .  A
C291        C561   1.486       .  S
Cd292       O299   2.447       .  S
Cd292       O298   2.474       .  S
Cd292       O297   2.480       .  S
Cd292       O293   2.475       .  S
Cd292       O296   2.459       .  S
Cd292       O294   2.496       .  S
C295        O299   1.265       .  A
C295        C544   1.480       .  S
O300        C303   1.269       .  A
O300       Cd305   2.483       .  S
C301        O310   1.264       .  A
C301        O306   1.268       .  A
C301       C1009   1.495       .  S
O302        C308   1.267       .  A
O302       Cd305   2.503       .  S
C303        O311   1.266       .  A
C303        C558   1.490       .  S
C304        O309   1.265       .  A
C304        O307   1.264   1_554  A
C304        C530   1.482       .  S
Cd305       O312   2.434       .  S
Cd305       O311   2.456       .  S
Cd305       O310   2.460   1_554  S
Cd305       O306   2.505   1_554  S
Cd305       O309   2.477       .  S
Cd305       O307   2.476   1_554  S
C308        O312   1.262       .  A
C308        C589   1.480       .  S
O313        C316   1.268       .  A
O313       Cd318   2.462       .  S
C314        O323   1.267       .  A
C314        O319   1.266       .  A
C314       C1219   1.494       .  S
O315        C321   1.262       .  A
O315       Cd318   2.412       .  S
C316        O324   1.266       .  A
C316        C502   1.487       .  S
C317        O322   1.268       .  A
C317        O320   1.265       .  A
C317        C642   1.482       .  S
Cd318       O325   2.499       .  S
Cd318       O324   2.467       .  S
Cd318       O323   2.496       .  S
Cd318       O319   2.486       .  S
Cd318       O322   2.486       .  S
Cd318       O320   2.436       .  S
C321        O325   1.269       .  A
C321        C516   1.478       .  S
O326        C329   1.266       .  A
O326       Cd331   2.488       .  S
C327        O336   1.263       .  A
C327        O332   1.266       .  A
C327        C488   1.488       .  S
O328        C334   1.264       .  A
O328       Cd331   2.472       .  S
C329        O337   1.263       .  A
C329       C1258   1.490       .  S
C330        O335   1.268       .  A
C330        O333   1.263       .  A
C330        C575   1.477       .  S
Cd331       O338   2.462       .  S
Cd331       O337   2.462       .  S
Cd331       O336   2.457   1_455  S
Cd331       O332   2.479   1_455  S
Cd331       O335   2.479       .  S
Cd331       O333   2.437       .  S
C334        O338   1.264       .  A
C334        C505   1.485       .  S
O339        C342   1.269       .  A
O339       Cd344   2.482       .  S
C340        O349   1.263       .  A
C340        O345   1.268       .  A
C340       C1149   1.487       .  S
O341        C347   1.263       .  A
O341       Cd344   2.444       .  S
C342        O350   1.266       .  A
C342        C474   1.487       .  S
C343        O348   1.266       .  A
C343        O346   1.264       .  A
C343        C715   1.488       .  S
Cd344       O351   2.496       .  S
Cd344       O350   2.457       .  S
Cd344       O349   2.448       .  S
Cd344       O345   2.484       .  S
Cd344       O348   2.484       .  S
Cd344       O346   2.480       .  S
C347        O351   1.267       .  A
C347        C491   1.481       .  S
O352        C355   1.266   1_655  A
O352       Cd357   2.440       .  S
C353        O362   1.264       .  A
C353        O358   1.263       .  A
C353       C1177   1.488       .  S
O354        C360   1.267       .  A
O354       Cd357   2.464       .  S
C355        O363   1.266       .  A
C355        C519   1.484       .  S
C356        O361   1.266       .  A
C356        O359   1.262       .  A
C356        C477   1.490       .  S
Cd357       O364   2.469       .  S
Cd357       O363   2.465   1_655  S
Cd357       O362   2.467       .  S
Cd357       O358   2.499       .  S
Cd357       O361   2.486       .  S
Cd357       O359   2.481       .  S
C360        O364   1.267       .  A
C360        C547   1.487       .  S
O365        C368   1.268       .  A
O365       Cd370   2.463       .  S
C366        O375   1.266       .  A
C366        O371   1.267       .  A
C366        C953   1.490       .  S
O367        C373   1.263       .  A
O367       Cd370   2.422       .  S
C368        O376   1.264       .  A
C368        C446   1.484       .  S
C369        O374   1.267   1_554  A
C369        O372   1.265       .  A
C369        C603   1.483       .  S
Cd370       O377   2.499       .  S
Cd370       O376   2.441       .  S
Cd370       O375   2.456   1_556  S
Cd370       O371   2.496   1_556  S
Cd370       O374   2.470       .  S
Cd370       O372   2.448   1_556  S
C373        O377   1.270       .  A
C373        C460   1.484       .  S
O378        C381   1.271       .  A
O378       Cd383   2.489       .  S
C379        O388   1.263       .  A
C379        O384   1.269       .  A
C379        C869   1.484       .  S
O380        C386   1.268       .  A
O380       Cd383   2.515       .  S
C381        O389   1.265       .  A
C381        C418   1.490       .  S
C382        O387   1.269   1_554  A
C382        O385   1.265       .  A
C382        C533   1.484       .  S
Cd383       O390   2.439       .  S
Cd383       O389   2.429       .  S
Cd383       O388   2.430   1_556  S
Cd383       O384   2.505   1_556  S
Cd383       O387   2.482       .  S
Cd383       O385   2.448   1_556  S
C386        O390   1.263       .  A
C386        C432   1.486       .  S
O391        C394   1.268       .  A
O391       Cd396   2.500       .  S
C392        O401   1.265       .  A
C392        O397   1.267       .  A
C392        C435   1.485       .  S
O393        C399   1.263       .  A
O393       Cd396   2.470       .  S
C394        O402   1.266       .  A
C394        C897   1.486       .  S
C395        O400   1.266       .  A
C395        O398   1.265       .  A
C395        C659   1.483       .  S
Cd396       O403   2.474       .  S
Cd396       O402   2.443       .  S
Cd396       O401   2.467       .  S
Cd396       O397   2.466       .  S
Cd396       O400   2.475       .  S
Cd396       O398   2.452       .  S
C399        O403   1.263       .  A
C399        C449   1.481       .  S
O404        C407   1.267       .  A
O404       Cd409   2.466       .  S
C405        O414   1.264       .  A
C405        O410   1.266       .  A
C405        C925   1.482       .  S
O406        C412   1.268       .  A
O406       Cd409   2.509       .  S
C407        O415   1.264       .  A
C407        C463   1.482       .  S
C408        O413   1.266       .  A
C408        O411   1.265       .  A
C408        C421   1.490       .  S
Cd409       O416   2.434       .  S
Cd409       O415   2.456       .  S
Cd409       O414   2.446       .  S
Cd409       O410   2.493       .  S
Cd409       O413   2.493       .  S
Cd409       O411   2.459       .  S
C412        O416   1.262       .  A
C412        C687   1.486       .  S
C417        C418   1.405       .  A
C417        C422   1.406       .  A
C417        H424   1.084       .  S
C418        C419   1.417       .  A
C419        C420   1.406       .  A
C419        N426   1.438       .  S
C420        C421   1.405       .  A
C420        H425   1.083       .  S
C421        C422   1.413       .  A
C422        N423   1.432       .  S
N423        H427   1.045       .  S
N423        H428   1.046       .  S
N426        H429   1.045       .  S
N426        H430   1.046       .  S
C431        C432   1.405       .  A
C431        C436   1.401       .  A
C431        H438   1.084       .  S
C432        C433   1.413       .  A
C433        C434   1.411       .  A
C433        N440   1.437       .  S
C434        C435   1.407       .  A
C434        H439   1.084       .  S
C435        C436   1.409       .  A
C436        N437   1.433       .  S
N437        H441   1.046       .  S
N437        H442   1.046       .  S
N440        H443   1.045       .  S
N440        H444   1.046       .  S
C445        C446   1.407       .  A
C445        C450   1.403       .  A
C445        H452   1.084       .  S
C446        C447   1.411       .  A
C447        C448   1.402       .  A
C447        N454   1.432       .  S
C448        C449   1.404       .  A
C448        H453   1.084       .  S
C449        C450   1.409       .  A
C450        N451   1.433       .  S
N451        H455   1.046       .  S
N451        H456   1.046       .  S
N454        H457   1.046       .  S
N454        H458   1.045   1_556  S
C459        C460   1.404       .  A
C459        C464   1.408       .  A
C459        H466   1.083       .  S
C460        C461   1.415       .  A
C461        C462   1.403       .  A
C461        N468   1.439       .  S
C462        C463   1.402       .  A
C462        H467   1.084       .  S
C463        C464   1.414       .  A
C464        N465   1.438       .  S
N465        H469   1.046       .  S
N465        H470   1.046       .  S
N468        H471   1.046       .  S
N468        H472   1.046       .  S
C473        C474   1.404       .  A
C473        C478   1.401       .  A
C473        H480   1.084       .  S
C474        C475   1.413       .  A
C475        C476   1.408       .  A
C475        N482   1.437       .  S
C476        C477   1.405       .  A
C476        H481   1.083       .  S
C477        C478   1.421       .  A
C478        N479   1.433       .  S
N479        H483   1.045       .  S
N479        H484   1.045       .  S
N482        H485   1.045       .  S
N482        H486   1.046       .  S
C487        C488   1.408       .  A
C487        C492   1.404       .  A
C487        H494   1.084       .  S
C488        C489   1.415       .  A
C489        C490   1.407       .  A
C489        N496   1.438       .  S
C490        C491   1.404       .  A
C490        H495   1.084       .  S
C491        C492   1.408       .  A
C492        N493   1.433       .  S
N493        H497   1.046       .  S
N493        H498   1.046       .  S
N496        H499   1.046       .  S
N496        H500   1.045       .  S
C501        C502   1.407       .  A
C501        C506   1.409       .  A
C501        H508   1.083       .  S
C502        C503   1.411       .  A
C503        C504   1.401       .  A
C503        N510   1.432       .  S
C504        C505   1.404       .  A
C504        H509   1.084       .  S
C505        C506   1.413       .  A
C506        N507   1.438       .  S
N507        H511   1.045       .  S
N507        H512   1.046       .  S
N510        H513   1.046       .  S
N510        H514   1.045       .  S
C515        C516   1.402       .  A
C515        C520   1.405       .  A
C515        H522   1.084       .  S
C516        C517   1.411       .  A
C517        C518   1.399       .  A
C517        N524   1.434       .  S
C518        C519   1.405       .  A
C518        H523   1.084       .  S
C519        C520   1.414       .  A
C520        N521   1.432       .  S
N521        H525   1.046       .  S
N521        H526   1.046       .  S
N524        H527   1.046       .  S
N524        H528   1.046       .  S
C529        C530   1.403       .  A
C529        C534   1.403       .  A
C529        H536   1.084       .  S
C530        C531   1.416   1_554  A
C531        C532   1.402       .  A
C531        N538   1.432       .  S
C532        C533   1.404   1_556  A
C532        H537   1.084       .  S
C533        C534   1.412       .  A
C534        N535   1.433       .  S
N535        H539   1.045       .  S
N535        H540   1.046       .  S
N538        H541   1.045       .  S
N538        H542   1.045       .  S
C543        C544   1.402       .  A
C543        C548   1.406   1_565  A
C543        H550   1.084       .  S
C544        C545   1.415       .  A
C545        C546   1.400   1_565  A
C545        N552   1.433   1_655  S
C546        C547   1.406       .  A
C546        H551   1.084       .  S
C547        C548   1.415       .  A
C548        N549   1.438       .  S
N549        H553   1.046   1_545  S
N549        H554   1.046       .  S
N552        H555   1.046       .  S
N552        H556   1.044       .  S
C557        C558   1.408       .  A
C557        C562   1.406       .  A
C557        H564   1.084       .  S
C558        C559   1.412       .  A
C559        C560   1.403       .  A
C559        N566   1.432       .  S
C560        C561   1.406       .  A
C560        H565   1.084       .  S
C561        C562   1.410       .  A
C562        N563   1.432       .  S
N563        H567   1.046       .  S
N563        H568   1.045       .  S
N566        H569   1.046       .  S
N566        H570   1.045       .  S
C571        C572   1.406       .  A
C571        C576   1.403       .  A
C571        H578   1.083       .  S
C572        C573   1.416       .  A
C573        C574   1.407       .  A
C573        N580   1.438       .  S
C574        C575   1.402       .  A
C574        H579   1.084       .  S
C575        C576   1.411       .  A
C576        N577   1.438   1_455  S
N577        H581   1.046       .  S
N577        H582   1.046   1_655  S
N580        H583   1.046       .  S
N580        H584   1.045       .  S
C585        C586   1.408       .  A
C585        C590   1.408       .  A
C585        H592   1.083       .  S
C586        C587   1.414       .  A
C587        C588   1.404       .  A
C587        N594   1.438       .  S
C588        C589   1.404       .  A
C588        H593   1.084       .  S
C589        C590   1.411       .  A
C590        N591   1.438       .  S
N591        H595   1.046       .  S
N591        H596   1.046       .  S
N594        H597   1.046       .  S
N594        H598   1.046       .  S
C599        C600   1.404   1_556  A
C599        C604   1.408       .  A
C599        H606   1.084       .  S
C600        C601   1.412       .  A
C601        C602   1.405       .  A
C601        N608   1.438       .  S
C602        C603   1.404       .  A
C602        H607   1.084       .  S
C603        C604   1.414   1_554  A
C604        N605   1.438       .  S
N605        H609   1.045       .  S
N605        H610   1.046       .  S
N608        H611   1.045       .  S
N608        H612   1.046       .  S
C613        C614   1.407       .  A
C613        C618   1.412       .  A
C613        H620   1.083       .  S
C614        C615   1.411       .  A
C615        C616   1.399       .  A
C615        N622   1.433       .  S
C616        C617   1.404       .  A
C616        H621   1.084       .  S
C617        C618   1.415       .  A
C618        N619   1.437       .  S
N619        H623   1.045       .  S
N619        H624   1.046       .  S
N622        H625   1.046       .  S
N622        H626   1.045       .  S
C627        C628   1.403       .  A
C627        C632   1.395       .  A
C627        H634   1.084       .  S
C628        C629   1.414       .  A
C629        C630   1.412       .  A
C629        N636   1.437       .  S
C630        C631   1.409       .  A
C630        H635   1.084       .  S
C631        C632   1.417       .  A
C632        N633   1.433       .  S
N633        H637   1.046   1_455  S
N633        H638   1.045       .  S
N636        H639   1.045       .  S
N636        H640   1.046       .  S
C641        C642   1.404       .  A
C641        C646   1.405       .  A
C641        H648   1.084       .  S
C642        C643   1.411       .  A
C643        C644   1.402       .  A
C643        N650   1.433       .  S
C644        C645   1.403       .  A
C644        H649   1.084       .  S
C645        C646   1.412       .  A
C646        N647   1.432       .  S
N647        H651   1.046       .  S
N647        H652   1.046       .  S
N650        H653   1.045       .  S
N650        H654   1.046       .  S
C655        C656   1.404       .  A
C655        C660   1.407       .  A
C655        H662   1.083       .  S
C656        C657   1.411       .  A
C657        C658   1.401       .  A
C657        N664   1.433       .  S
C658        C659   1.404       .  A
C658        H663   1.084       .  S
C659        C660   1.414       .  A
C660        N661   1.438       .  S
N661        H665   1.046       .  S
N661        H666   1.045       .  S
N664        H667   1.046       .  S
N664        H668   1.046       .  S
C669        C670   1.404       .  A
C669        C674   1.402       .  A
C669        H676   1.084       .  S
C670        C671   1.417       .  A
C671        C672   1.405       .  A
C671        N678   1.438       .  S
C672        C673   1.403       .  A
C672        H677   1.083       .  S
C673        C674   1.411       .  A
C674        N675   1.433       .  S
N675        H679   1.046       .  S
N675        H680   1.045       .  S
N678        H681   1.046       .  S
N678        H682   1.045       .  S
C683        C684   1.407   1_565  A
C683        C688   1.409       .  A
C683        H690   1.084   1_565  S
C684        C685   1.415   1_545  A
C685        C686   1.396       .  A
C685        N692   1.433   1_565  S
C686        C687   1.405       .  A
C686        H691   1.084       .  S
C687        C688   1.413       .  A
C688        N689   1.437       .  S
N689        H693   1.045       .  S
N689        H694   1.046       .  S
N692        H695   1.046       .  S
N692        H696   1.044       .  S
C697        C698   1.407       .  A
C697        C702   1.409       .  A
C697        H704   1.084       .  S
C698        C699   1.417       .  A
C699        C700   1.394       .  A
C699        N706   1.433       .  S
C700        C701   1.404       .  A
C700        H705   1.084       .  S
C701        C702   1.414       .  A
C702        N703   1.437       .  S
N703        H707   1.046       .  S
N703        H708   1.046       .  S
N706        H709   1.046       .  S
N706        H710   1.045       .  S
C711        C712   1.405       .  A
C711        C716   1.409       .  A
C711        H718   1.084       .  S
C712        C713   1.416       .  A
C713        C714   1.399       .  A
C713        N720   1.433       .  S
C714        C715   1.404       .  A
C714        H719   1.084       .  S
C715        C716   1.416       .  A
C716        N717   1.438       .  S
N717        H721   1.045       .  S
N717        H722   1.046       .  S
N720        H723   1.050       .  S
N720        H724   1.040       .  S
C725        C726   1.404       .  A
C725        C730   1.400       .  A
C725        H732   1.084       .  S
C726        C727   1.409       .  A
C727        C728   1.404       .  A
C727        N734   1.432       .  S
C728        C729   1.407       .  A
C728        H733   1.084       .  S
C729        C730   1.411       .  A
C730        N731   1.433       .  S
N731        H735   1.046       .  S
N731        H736   1.045       .  S
N734        H737   1.045       .  S
N734        H738   1.046       .  S
C739        C740   1.406       .  A
C739        C744   1.402       .  A
C739        H746   1.084       .  S
C740        C741   1.416       .  A
C741        C742   1.408       .  A
C741        N748   1.437       .  S
C742        C743   1.405       .  A
C742        H747   1.084       .  S
C743        C744   1.407       .  A
C744        N745   1.432       .  S
N745        H749   1.045       .  S
N745        H750   1.046       .  S
N748        H751   1.046       .  S
N748        H752   1.045       .  S
C753        C754   1.405       .  A
C753        C758   1.400       .  A
C753        H760   1.083       .  S
C754        C755   1.417       .  A
C755        C756   1.412       .  A
C755        N762   1.438       .  S
C756        C757   1.404       .  A
C756        H761   1.084       .  S
C757        C758   1.408       .  A
C758        N759   1.439       .  S
N759        H763   1.046       .  S
N759        H764   1.045       .  S
N762        H765   1.046       .  S
N762        H766   1.046       .  S
C767        C768   1.407       .  A
C767        C772   1.409       .  A
C767        H774   1.083       .  S
C768        C769   1.418       .  A
C769        C770   1.400       .  A
C769        N776   1.432       .  S
C770        C771   1.406       .  A
C770        H775   1.084       .  S
C771        C772   1.415       .  A
C772        N773   1.438       .  S
N773        H777   1.043       .  S
N773        H778   1.048       .  S
N776        H779   1.044       .  S
N776        H780   1.047       .  S
C781        C782   1.406       .  A
C781        C786   1.411       .  A
C781        H788   1.084       .  S
C782        C783   1.410       .  A
C783        C784   1.400       .  A
C783        N790   1.439       .  S
C784        C785   1.405       .  A
C784        H789   1.084       .  S
C785        C786   1.413       .  A
C786        N787   1.437       .  S
N787        H791   1.046       .  S
N787        H792   1.045       .  S
N790        H793   1.046       .  S
N790        H794   1.045       .  S
C795        C796   1.402       .  A
C795        C800   1.400       .  A
C795        H802   1.084       .  S
C796        C797   1.415       .  A
C797        C798   1.409       .  A
C797        N804   1.438       .  S
C798        C799   1.404       .  A
C798        H803   1.084       .  S
C799        C800   1.410       .  A
C800        N801   1.433       .  S
N801        H805   1.046       .  S
N801        H806   1.045       .  S
N804        H807   1.045       .  S
N804        H808   1.046       .  S
C809        C810   1.405       .  A
C809        C814   1.399       .  A
C809        H816   1.084       .  S
C810        C811   1.413       .  A
C811        C812   1.407       .  A
C811        N818   1.438       .  S
C812        C813   1.406       .  A
C812        H817   1.084       .  S
C813        C814   1.417       .  A
C814        N815   1.432       .  S
N815        H819   1.046       .  S
N815        H820   1.045       .  S
N818        H821   1.047       .  S
N818        H822   1.045       .  S
C823        C824   1.403       .  A
C823        C828   1.401       .  A
C823        H830   1.084       .  S
C824        C825   1.412       .  A
C825        C826   1.406       .  A
C825        N832   1.432       .  S
C826        C827   1.406       .  A
C826        H831   1.084       .  S
C827        C828   1.413       .  A
C828        N829   1.433       .  S
N829        H833   1.046       .  S
N829        H834   1.045       .  S
N832        H835   1.046       .  S
N832        H836   1.046       .  S
C837        C838   1.405       .  A
C837        C842   1.400       .  A
C837        H844   1.084       .  S
C838        C839   1.410       .  A
C839        C840   1.405       .  A
C839        N846   1.432       .  S
C840        C841   1.408       .  A
C840        H845   1.084       .  S
C841        C842   1.419       .  A
C842        N843   1.432       .  S
N843        H847   1.043       .  S
N843        H848   1.047       .  S
N846        H849   1.046       .  S
N846        H850   1.046       .  S
C851        C852   1.404       .  A
C851        C856   1.405       .  A
C851        H858   1.083       .  S
C852        C853   1.416       .  A
C853        C854   1.408       .  A
C853        N860   1.438       .  S
C854        C855   1.402       .  A
C854        H859   1.084       .  S
C855        C856   1.413       .  A
C856        N857   1.439       .  S
N857        H861   1.046       .  S
N857        H862   1.045       .  S
N860        H863   1.046       .  S
N860        H864   1.046       .  S
C865        C866   1.403       .  A
C865        C870   1.401       .  A
C865        H872   1.084       .  S
C866        C867   1.413       .  A
C867        C868   1.408       .  A
C867        N874   1.432       .  S
C868        C869   1.405       .  A
C868        H873   1.084       .  S
C869        C870   1.412       .  A
C870        N871   1.433       .  S
N871        H875   1.046       .  S
N871        H876   1.045       .  S
N874        H877   1.046       .  S
N874        H878   1.045       .  S
C879        C880   1.404       .  A
C879        C884   1.406       .  A
C879        H886   1.084       .  S
C880        C881   1.409       .  A
C881        C882   1.403       .  A
C881        N888   1.433       .  S
C882        C883   1.405       .  A
C882        H887   1.084       .  S
C883        C884   1.412       .  A
C884        N885   1.432       .  S
N885        H889   1.046       .  S
N885        H890   1.046       .  S
N888        H891   1.046       .  S
N888        H892   1.045       .  S
C893        C894   1.403       .  A
C893        C898   1.399       .  A
C893        H900   1.084       .  S
C894        C895   1.415       .  A
C895        C896   1.414       .  A
C895        N902   1.437       .  S
C896        C897   1.407       .  A
C896        H901   1.084       .  S
C897        C898   1.409       .  A
C898        N899   1.433       .  S
N899        H903   1.046       .  S
N899        H904   1.045       .  S
N902        H905   1.045       .  S
N902        H906   1.046       .  S
C907        C908   1.402       .  A
C907        C912   1.404       .  A
C907        H914   1.084       .  S
C908        C909   1.411       .  A
C909        C910   1.408       .  A
C909        N916   1.438       .  S
C910        C911   1.408       .  A
C910        H915   1.083       .  S
C911        C912   1.416       .  A
C912        N913   1.438       .  S
N913        H917   1.046       .  S
N913        H918   1.045       .  S
N916        H919   1.046       .  S
N916        H920   1.046       .  S
C921        C922   1.405       .  A
C921        C926   1.406       .  A
C921        H928   1.084       .  S
C922        C923   1.415       .  A
C923        C924   1.397       .  A
C923        N930   1.433       .  S
C924        C925   1.403       .  A
C924        H929   1.084       .  S
C925        C926   1.411       .  A
C926        N927   1.432       .  S
N927        H931   1.045       .  S
N927        H932   1.047       .  S
N930        H933   1.046       .  S
N930        H934   1.044       .  S
C935        C936   1.405       .  A
C935        C940   1.403       .  A
C935        H942   1.084       .  S
C936        C937   1.413       .  A
C937        C938   1.399       .  A
C937        N944   1.433       .  S
C938        C939   1.402       .  A
C938        H943   1.084       .  S
C939        C940   1.411       .  A
C940        N941   1.432       .  S
N941        H945   1.045       .  S
N941        H946   1.046       .  S
N944        H947   1.046       .  S
N944        H948   1.045       .  S
C949        C950   1.407       .  A
C949        C954   1.403       .  A
C949        H956   1.084       .  S
C950        C951   1.412       .  A
C951        C952   1.403       .  A
C951        N958   1.432       .  S
C952        C953   1.406       .  A
C952        H957   1.084       .  S
C953        C954   1.418       .  A
C954        N955   1.432       .  S
N955        H959   1.045       .  S
N955        H960   1.045       .  S
N958        H961   1.045       .  S
N958        H962   1.046       .  S
C963        C964   1.405       .  A
C963        C968   1.409       .  A
C963        H970   1.083       .  S
C964        C965   1.414       .  A
C965        C966   1.402       .  A
C965        N972   1.439       .  S
C966        C967   1.405   1_565  A
C966        H971   1.083   1_565  S
C967        C968   1.416   1_545  A
C968        N969   1.437   1_565  S
N969        H973   1.046   1_545  S
N969        H974   1.045       .  S
N972        H975   1.046       .  S
N972        H976   1.046       .  S
C977        C978   1.405       .  A
C977        C982   1.398       .  A
C977        H984   1.084       .  S
C978        C979   1.413       .  A
C979        C980   1.408       .  A
C979        N986   1.438       .  S
C980        C981   1.409       .  A
C980        H985   1.084       .  S
C981        C982   1.417       .  A
C982        N983   1.432       .  S
N983        H987   1.045       .  S
N983        H988   1.046       .  S
N986        H989   1.046       .  S
N986        H990   1.046       .  S
C991        C992   1.403       .  A
C991        C996   1.400       .  A
C991        H998   1.084       .  S
C992        C993   1.416       .  A
C993        C994   1.410       .  A
C993       N1000   1.438       .  S
C994        C995   1.404       .  A
C994        H999   1.084       .  S
C995        C996   1.410       .  A
C996        N997   1.433       .  S
N997       H1001   1.045       .  S
N997       H1002   1.046       .  S
N1000      H1003   1.046       .  S
N1000      H1004   1.045       .  S
C1005      C1006   1.405       .  A
C1005      C1010   1.408       .  A
C1005      H1012   1.083       .  S
C1006      C1007   1.416       .  A
C1007      C1008   1.410       .  A
C1007      N1014   1.438       .  S
C1008      C1009   1.406       .  A
C1008      H1013   1.083       .  S
C1009      C1010   1.417       .  A
C1010      N1011   1.438       .  S
N1011      H1015   1.045       .  S
N1011      H1016   1.046       .  S
N1014      H1017   1.045       .  S
N1014      H1018   1.046       .  S
C1019      C1020   1.406       .  A
C1019      C1024   1.406       .  A
C1019      H1026   1.083       .  S
C1020      C1021   1.415       .  A
C1021      C1022   1.405       .  A
C1021      N1028   1.433       .  S
C1022      C1023   1.404       .  A
C1022      H1027   1.084       .  S
C1023      C1024   1.412       .  A
C1024      N1025   1.432       .  S
N1025      H1029   1.046       .  S
N1025      H1030   1.045       .  S
N1028      H1031   1.046       .  S
N1028      H1032   1.046       .  S
C1033      C1034   1.404       .  A
C1033      C1038   1.399       .  A
C1033      H1040   1.084       .  S
C1034      C1035   1.412       .  A
C1035      C1036   1.405       .  A
C1035      N1042   1.438       .  S
C1036      C1037   1.405       .  A
C1036      H1041   1.083       .  S
C1037      C1038   1.418       .  A
C1038      N1039   1.433       .  S
N1039      H1043   1.047       .  S
N1039      H1044   1.044       .  S
N1042      H1045   1.046       .  S
N1042      H1046   1.046       .  S
C1047      C1048   1.406       .  A
C1047      C1052   1.401       .  A
C1047      H1054   1.084       .  S
C1048      C1049   1.410       .  A
C1049      C1050   1.407       .  A
C1049      N1056   1.432       .  S
C1050      C1051   1.408       .  A
C1050      H1055   1.084       .  S
C1051      C1052   1.410       .  A
C1052      N1053   1.432       .  S
N1053      H1057   1.045       .  S
N1053      H1058   1.046       .  S
N1056      H1059   1.046       .  S
N1056      H1060   1.046       .  S
C1061      C1062   1.404       .  A
C1061      C1066   1.401       .  A
C1061      H1068   1.084       .  S
C1062      C1063   1.412       .  A
C1063      C1064   1.407       .  A
C1063      N1070   1.432       .  S
C1064      C1065   1.406       .  A
C1064      H1069   1.084       .  S
C1065      C1066   1.413       .  A
C1066      N1067   1.433       .  S
N1067      H1071   1.045       .  S
N1067      H1072   1.046       .  S
N1070      H1073   1.044       .  S
N1070      H1074   1.047       .  S
C1075      C1076   1.405       .  A
C1075      C1080   1.402       .  A
C1075      H1082   1.084       .  S
C1076      C1077   1.421       .  A
C1077      C1078   1.402       .  A
C1077      N1084   1.433       .  S
C1078      C1079   1.401       .  A
C1078      H1083   1.084       .  S
C1079      C1080   1.409       .  A
C1080      N1081   1.433       .  S
N1081      H1085   1.046       .  S
N1081      H1086   1.045       .  S
N1084      H1087   1.045       .  S
N1084      H1088   1.045       .  S
C1089      C1090   1.405       .  A
C1089      C1094   1.397       .  A
C1089      H1096   1.084       .  S
C1090      C1091   1.415       .  A
C1091      C1092   1.410       .  A
C1091      N1098   1.437       .  S
C1092      C1093   1.405       .  A
C1092      H1097   1.084       .  S
C1093      C1094   1.416       .  A
C1094      N1095   1.433       .  S
N1095      H1099   1.043       .  S
N1095      H1100   1.047       .  S
N1098      H1101   1.046       .  S
N1098      H1102   1.046       .  S
C1103      C1104   1.403       .  A
C1103      C1108   1.397       .  A
C1103      H1110   1.084       .  S
C1104      C1105   1.413       .  A
C1105      C1106   1.408       .  A
C1105      N1112   1.438       .  S
C1106      C1107   1.405       .  A
C1106      H1111   1.084       .  S
C1107      C1108   1.416       .  A
C1108      N1109   1.433       .  S
N1109      H1113   1.043       .  S
N1109      H1114   1.047       .  S
N1112      H1115   1.046       .  S
N1112      H1116   1.045       .  S
C1117      C1118   1.403       .  A
C1117      C1122   1.404       .  A
C1117      H1124   1.084       .  S
C1118      C1119   1.415       .  A
C1119      C1120   1.409       .  A
C1119      N1126   1.437       .  S
C1120      C1121   1.405       .  A
C1120      H1125   1.083       .  S
C1121      C1122   1.416       .  A
C1122      N1123   1.438       .  S
N1123      H1127   1.046       .  S
N1123      H1128   1.046       .  S
N1126      H1129   1.046       .  S
N1126      H1130   1.045       .  S
C1131      C1132   1.408       .  A
C1131      C1136   1.408       .  A
C1131      H1138   1.083       .  S
C1132      C1133   1.415       .  A
C1133      C1134   1.402       .  A
C1133      N1140   1.439       .  S
C1134      C1135   1.403       .  A
C1134      H1139   1.084       .  S
C1135      C1136   1.410       .  A
C1136      N1137   1.437       .  S
N1137      H1141   1.045       .  S
N1137      H1142   1.046       .  S
N1140      H1143   1.046   1_455  S
N1140      H1144   1.046       .  S
C1145      C1146   1.403       .  A
C1145      C1150   1.398       .  A
C1145      H1152   1.084       .  S
C1146      C1147   1.411       .  A
C1147      C1148   1.405       .  A
C1147      N1154   1.432       .  S
C1148      C1149   1.406       .  A
C1148      H1153   1.084       .  S
C1149      C1150   1.419       .  A
C1150      N1151   1.433       .  S
N1151      H1155   1.044       .  S
N1151      H1156   1.046       .  S
N1154      H1157   1.046       .  S
N1154      H1158   1.045       .  S
C1159      C1160   1.407       .  A
C1159      C1164   1.407       .  A
C1159      H1166   1.083       .  S
C1160      C1161   1.415       .  A
C1161      C1162   1.402       .  A
C1161      N1168   1.433       .  S
C1162      C1163   1.401       .  A
C1162      H1167   1.084       .  S
C1163      C1164   1.409       .  A
C1164      N1165   1.432       .  S
N1165      H1169   1.046       .  S
N1165      H1170   1.045       .  S
N1168      H1171   1.045   1_655  S
N1168      H1172   1.046       .  S
C1173      C1174   1.406       .  A
C1173      C1178   1.408       .  A
C1173      H1180   1.084       .  S
C1174      C1175   1.412       .  A
C1175      C1176   1.401       .  A
C1175      N1182   1.433       .  S
C1176      C1177   1.404       .  A
C1176      H1181   1.084       .  S
C1177      C1178   1.414       .  A
C1178      N1179   1.432       .  S
N1179      H1183   1.045       .  S
N1179      H1184   1.046       .  S
N1182      H1185   1.042       .  S
N1182      H1186   1.049       .  S
C1187      C1188   1.400   1_556  A
C1187      C1192   1.397       .  A
C1187      H1194   1.084       .  S
C1188      C1189   1.413       .  A
C1189      C1190   1.410       .  A
C1189      N1196   1.438       .  S
C1190      C1191   1.407       .  A
C1190      H1195   1.084       .  S
C1191      C1192   1.419   1_554  A
C1192      N1193   1.432       .  S
N1193      H1197   1.045       .  S
N1193      H1198   1.045       .  S
N1196      H1199   1.045       .  S
N1196      H1200   1.046       .  S
C1201      C1202   1.406       .  A
C1201      C1206   1.405       .  A
C1201      H1208   1.083       .  S
C1202      C1203   1.414       .  A
C1203      C1204   1.406       .  A
C1203      N1210   1.438       .  S
C1204      C1205   1.407       .  A
C1204      H1209   1.083       .  S
C1205      C1206   1.414       .  A
C1206      N1207   1.438       .  S
N1207      H1211   1.045       .  S
N1207      H1212   1.046       .  S
N1210      H1213   1.045   1_556  S
N1210      H1214   1.046       .  S
C1215      C1216   1.408       .  A
C1215      C1220   1.412       .  A
C1215      H1222   1.083       .  S
C1216      C1217   1.420       .  A
C1217      C1218   1.403       .  A
C1217      N1224   1.432       .  S
C1218      C1219   1.405       .  A
C1218      H1223   1.084       .  S
C1219      C1220   1.415       .  A
C1220      N1221   1.438       .  S
N1221      H1225   1.046       .  S
N1221      H1226   1.046       .  S
N1224      H1227   1.046       .  S
N1224      H1228   1.044       .  S
C1229      C1230   1.403       .  A
C1229      C1234   1.401       .  A
C1229      H1236   1.084   1_455  S
C1230      C1231   1.413       .  A
C1231      C1232   1.407       .  A
C1231      N1238   1.438       .  S
C1232      C1233   1.405   1_565  A
C1232      H1237   1.083   1_565  S
C1233      C1234   1.411   1_545  A
C1234      N1235   1.433   1_465  S
N1235      H1239   1.046       .  S
N1235      H1240   1.046       .  S
N1238      H1241   1.046       .  S
N1238      H1242   1.046       .  S
C1243      C1244   1.404       .  A
C1243      C1248   1.400       .  A
C1243      H1250   1.084       .  S
C1244      C1245   1.414       .  A
C1245      C1246   1.408       .  A
C1245      N1252   1.432       .  S
C1246      C1247   1.404       .  A
C1246      H1251   1.084       .  S
C1247      C1248   1.411       .  A
C1248      N1249   1.433       .  S
N1249      H1253   1.046       .  S
N1249      H1254   1.045       .  S
N1252      H1255   1.046       .  S
N1252      H1256   1.045       .  S
C1257      C1258   1.405       .  A
C1257      C1262   1.408       .  A
C1257      H1264   1.083       .  S
C1258      C1259   1.414       .  A
C1259      C1260   1.404       .  A
C1259      N1266   1.432       .  S
C1260      C1261   1.404       .  A
C1260      H1265   1.084       .  S
C1261      C1262   1.416       .  A
C1262      N1263   1.438       .  S
N1263      H1267   1.045       .  S
N1263      H1268   1.046       .  S
N1266      H1269   1.046       .  S
N1266      H1270   1.046       .  S
C1271      C1272   1.404   1_556  A
C1271      C1276   1.401       .  A
C1271      H1278   1.084       .  S
C1272      C1273   1.413       .  A
C1273      C1274   1.405       .  A
C1273      N1280   1.438       .  S
C1274      C1275   1.403       .  A
C1274      H1279   1.084       .  S
C1275      C1276   1.416   1_554  A
C1276      N1277   1.433       .  S
N1277      H1281   1.045       .  S
N1277      H1282   1.045       .  S
N1280      H1283   1.046       .  S
N1280      H1284   1.045       .  S
C1285      C1286   1.407       .  A
C1285      C1290   1.408       .  A
C1285      H1292   1.084       .  S
C1286      C1287   1.415       .  A
C1287      C1288   1.400       .  A
C1287      N1294   1.433       .  S
C1288      C1289   1.401       .  A
C1288      H1293   1.084       .  S
C1289      C1290   1.414       .  A
C1290      N1291   1.432       .  S
N1291      H1295   1.046       .  S
N1291      H1296   1.045       .  S
N1294      H1297   1.046       .  S
N1294      H1298   1.045       .  S
C1299      C1300   1.408       .  A
C1299      C1304   1.410       .  A
C1299      H1306   1.083       .  S
C1300      C1301   1.412       .  A
C1301      C1302   1.400       .  A
C1301      N1308   1.433       .  S
C1302      C1303   1.402       .  A
C1302      H1307   1.084       .  S
C1303      C1304   1.411       .  A
C1304      N1305   1.437       .  S
N1305      H1309   1.045       .  S
N1305      H1310   1.046       .  S
N1308      H1311   1.045       .  S
N1308      H1312   1.046       .  S
