geometry optimzed in LAMMPS
_audit_creation_date              2020-12-01 
_audit_creation_method            'lammps2cif' 
_symmetry_space_group_name_H-M    'P1' 
_symmetry_Int_Tables_number       1 
_symmetry_cell_setting            triclinic 
loop_ 
_symmetry_equiv_pos_as_xyz 
  x,y,z 
_cell_length_a                    46.17122811 
_cell_length_b                    45.433872590365695 
_cell_length_c                    43.34701594831373 
_cell_angle_alpha                 88.60730407951925 
_cell_angle_beta                  91.46359838328806 
_cell_angle_gamma                 90.74046707882641 
loop_ 
_atom_site_label 
_atom_site_type_symbol 
_atom_site_fract_x 
_atom_site_fract_y 
_atom_site_fract_z 
_atom_site_charge 
O1          O  0.03580411  0.09851569  0.27225628    -0.70700
O2          O  0.47266142  0.09371584  0.21426537    -0.70900
O3          O  0.03083264  0.09482615  0.21046258    -0.70800
O4          O  0.47774682  0.09696529  0.27593846    -0.70800
O5          O  0.47699286  0.14475510  0.27190624    -0.70800
O6          O  0.03023353  0.14259985  0.20615234    -0.70800
O7          O  0.47216781  0.14153728  0.21030695    -0.70700
O8          O  0.03487483  0.14629802  0.26785034    -0.70900
V9          V  0.00426740  0.09691591  0.24310566     1.35200
V10         V  0.50359657  0.14284894  0.23910918     1.35200
C11         C  0.04586261  0.12337827  0.27988996     0.78500
C12         C  0.46156861  0.11695246  0.20283800     0.78600
C13         C  0.03960903  0.11825597  0.19728401     0.78400
C14         C  0.46839097  0.12117395  0.28502606     0.78400
C15         C  0.39281855  0.14984602  0.40092191     0.87500
C16         C  0.36503423  0.13289767  0.39263807    -0.52700
C17         C  0.36980382  0.10622887  0.38019006     0.10500
C18         C  0.40219556  0.09901563  0.37686873     0.21400
C19         C  0.41021110  0.12893986  0.42212950    -0.53400
C20         C  0.41515352  0.10217806  0.40979430     0.10600
C21         C  0.40990297  0.15224073  0.37113082    -0.52900
C22         C  0.41492873  0.12554213  0.35853993     0.11100
H23         H  0.34349094  0.14071234  0.39746501     0.15700
H24         H  0.40604546  0.07725420  0.36666707     0.01400
H25         H  0.41768465  0.13473749  0.44518489     0.16000
H26         H  0.41792049  0.17293664  0.36136966     0.15800
O27         O  0.23021575  0.05008893  0.40049014    -0.70700
O28         O  0.28213347  0.48585014  0.40538010    -0.70900
O29         O  0.28840308  0.04438397  0.40086347    -0.70800
O30         O  0.22423975  0.49097619  0.40453341    -0.70800
O31         O  0.22326628  0.48875521  0.35446530    -0.70800
O32         O  0.28722659  0.04228554  0.35077943    -0.70800
O33         O  0.28119147  0.48369860  0.35528343    -0.70700
O34         O  0.22900453  0.04790977  0.35041805    -0.70900
V35         V  0.25616259  0.01785181  0.40182855     1.35200
V36         V  0.25512932  0.01576998  0.35370045     1.35200
C37         C  0.22072595  0.05982791  0.37469285     0.78500
C38         C  0.29058636  0.47408820  0.38119914     0.78600
C39         C  0.29909929  0.05176980  0.37520907     0.78400
C40         C  0.21322205  0.48043637  0.38011006     0.78400
O41         O  0.21860396  0.02256484  0.14881467    -0.70700
O42         O  0.27442248  0.46234087  0.15913879    -0.70900
O43         O  0.27672941  0.02114085  0.15017113    -0.70800
O44         O  0.21652633  0.46356864  0.15715074    -0.70800
O45         O  0.21632945  0.45836727  0.10738984    -0.70800
O46         O  0.27668030  0.01543233  0.10048928    -0.70800
O47         O  0.27416169  0.45662602  0.10944495    -0.70700
O48         O  0.21854201  0.01731216  0.09906952    -0.70900
V49         V  0.24656202  0.49234558  0.15284785     1.35200
V50         V  0.24642644  0.48707499  0.10506232     1.35200
C51         C  0.20916776  0.03017727  0.12227790     0.78500
C52         C  0.28342962  0.44906777  0.13612067     0.78600
C53         C  0.28682757  0.02801696  0.12409563     0.78400
C54         C  0.20662857  0.45089461  0.13339780     0.78400
C55         C  0.34306938  0.09755790  0.12743294     0.87500
C56         C  0.37223893  0.09172054  0.14376195    -0.52700
C57         C  0.38735744  0.11681018  0.15040265     0.10500
C58         C  0.37202961  0.14543150  0.14014563     0.21400
C59         C  0.32728840  0.11802581  0.14861423    -0.53400
C60         C  0.34213247  0.14342048  0.15516200     0.10600
C61         C  0.35002659  0.11658803  0.09871833    -0.52900
C62         C  0.36530269  0.14170146  0.10552432     0.11100
H63         H  0.38000529  0.06983431  0.14999586     0.15700
H64         H  0.38454992  0.16583005  0.14534572     0.01400
H65         H  0.30605278  0.11270690  0.15758688     0.16000
H66         H  0.34296302  0.11113835  0.07543729     0.15800
O67         O  0.40086528  0.28528840  0.47683314    -0.70700
O68         O  0.40066976  0.22004481  0.03412730    -0.70900
O69         O  0.40367948  0.22672672  0.47231508    -0.70800
O70         O  0.39840710  0.27885103  0.03872088    -0.70800
O71         O  0.35135835  0.27655994  0.03508330    -0.70800
O72         O  0.35665429  0.22409975  0.46835651    -0.70800
O73         O  0.35364787  0.21786858  0.03010126    -0.70700
O74         O  0.35383863  0.28253907  0.47328900    -0.70900
V75         V  0.40000212  0.25267573  0.00545939     1.35200
V76         V  0.35480070  0.25031176  0.00181496     1.35200
C77         C  0.37724087  0.29462513  0.46510348     0.78500
C78         C  0.37696149  0.20802307  0.04182186     0.78600
C79         C  0.38116762  0.21683420  0.45892600     0.78400
C80         C  0.37409640  0.28655673  0.04813707     0.78400
C81         C  0.34241788  0.40243666  0.37671736     0.87500
C82         C  0.37100045  0.40833184  0.36035985    -0.52700
C83         C  0.38538309  0.38328716  0.35401720     0.10500
C84         C  0.36983793  0.35470808  0.36442042     0.21400
C85         C  0.32512800  0.38168455  0.35580948    -0.53400
C86         C  0.33927353  0.35650651  0.34887835     0.10600
C87         C  0.35031479  0.38376584  0.40555198    -0.52900
C88         C  0.36473866  0.35870350  0.39905050     0.11100
H89         H  0.37896182  0.43022467  0.35406114     0.15700
H90         H  0.38216259  0.33467545  0.35937460     0.01400
H91         H  0.30321629  0.38662059  0.34786099     0.16000
H92         H  0.34455035  0.38947927  0.42878413     0.15800
C93         C  0.35083179  0.39367029  0.13396616     0.87500
C94         C  0.37105257  0.38807626  0.16199364    -0.52700
C95         C  0.39647116  0.37519266  0.15466326     0.10500
C96         C  0.39920054  0.36905518  0.12002446     0.21400
C97         C  0.36883288  0.41183559  0.11125184    -0.53400
C98         C  0.39410351  0.39905183  0.10368853     0.10600
C99         C  0.34642632  0.36378473  0.11885839    -0.52900
C100        C  0.37180731  0.35097098  0.11139912     0.11100
H101        H  0.36616882  0.39454414  0.18524320     0.15700
H102        H  0.41981970  0.35855897  0.11391158     0.01400
H103        H  0.36207215  0.43313347  0.10181473     0.16000
H104        H  0.32526078  0.35452041  0.11286611     0.15800
O105        O  0.02847806  0.39693515  0.23137068    -0.70700
O106        O  0.46881845  0.40418176  0.28969588    -0.70900
O107        O  0.02738619  0.40460100  0.29255482    -0.70800
O108        O  0.47025708  0.39688765  0.22854426    -0.70800
O109        O  0.46981556  0.34933911  0.23565241    -0.70800
O110        O  0.02676340  0.35716511  0.30049774    -0.70800
O111        O  0.46821646  0.35663082  0.29684041    -0.70700
O112        O  0.02805211  0.34947576  0.23932838    -0.70900
V113        V  0.99873182  0.39973300  0.26073909     1.35200
V114        V  0.99822868  0.35408457  0.26798532     1.35200
C115        C  0.03834976  0.37189766  0.22560472     0.78500
C116        C  0.45804989  0.38147754  0.30263431     0.78600
C117        C  0.03703745  0.38225155  0.30712664     0.78400
C118        C  0.46037634  0.37191587  0.22121764     0.78400
C119        C  0.11560852  0.14049944  0.33666197     0.87500
C120        C  0.10886342  0.15655446  0.36622303    -0.52700
C121        C  0.13305264  0.16531168  0.38241448     0.10500
C122        C  0.16179340  0.15668319  0.36772253     0.21400
C123        C  0.13533962  0.16176737  0.31860062    -0.53400
C124        C  0.15971832  0.17020396  0.33479792     0.10600
C125        C  0.13500574  0.11479101  0.34677628    -0.52900
C126        C  0.15933806  0.12321871  0.36284476     0.11100
H127        H  0.08704093  0.16162615  0.37303703     0.15700
H128        H  0.18149954  0.16358927  0.38105088     0.01400
H129        H  0.13095468  0.16863283  0.29479143     0.16000
H130        H  0.13061629  0.09212842  0.34048599     0.15800
C131        C  0.14460824  0.42300671  0.39172620     0.87500
C132        C  0.12560283  0.41435310  0.36365036    -0.52700
C133        C  0.10173856  0.39786645  0.37133094     0.10500
C134        C  0.09929988  0.39146873  0.40617833     0.21400
C135        C  0.12402156  0.43855698  0.41288585    -0.53400
C136        C  0.09997285  0.42233351  0.42054437     0.10600
C137        C  0.15210683  0.39394383  0.40866500    -0.52900
C138        C  0.12833888  0.37740047  0.41620930     0.11100
H139        H  0.12999684  0.42151224  0.34012890     0.15700
H140        H  0.08033719  0.37745420  0.41222185     0.01400
H141        H  0.12774067  0.46112753  0.41975346     0.16000
H142        H  0.17412611  0.38720870  0.41440716     0.15800
C143        C  0.10782406  0.35994540  0.17056660     0.87500
C144        C  0.10247533  0.34305423  0.14071065    -0.52700
C145        C  0.12711607  0.33837528  0.12491287     0.10500
C146        C  0.15478773  0.35120958  0.14039476     0.21400
C147        C  0.13064299  0.34214975  0.18907669    -0.53400
C148        C  0.15537708  0.33752131  0.17329171     0.10600
C149        C  0.12345025  0.38845391  0.16093104    -0.52900
C150        C  0.14816702  0.38389120  0.14535812     0.11100
H151        H  0.08126934  0.33501219  0.13310130     0.15700
H152        H  0.17488730  0.34770079  0.12748184     0.01400
H153        H  0.12746578  0.33387711  0.21247995     0.16000
H154        H  0.11642940  0.41019954  0.16722649     0.15800
C155        C  0.14094310  0.08568212  0.10805387     0.87500
C156        C  0.12370758  0.09321580  0.13660623    -0.52700
C157        C  0.09829537  0.10727218  0.12956410     0.10500
C158        C  0.09255079  0.11254792  0.09470055     0.21400
C159        C  0.11988352  0.06780891  0.08804490    -0.53400
C160        C  0.09430796  0.08147755  0.08127305     0.10600
C161        C  0.14525482  0.11491751  0.09043520    -0.52900
C162        C  0.11996011  0.12911791  0.08352237     0.11100
H163        H  0.13048280  0.08716460  0.16006501     0.15700
H164        H  0.07185272  0.12392786  0.08908655     0.01400
H165        H  0.12415248  0.04541849  0.08125153     0.16000
H166        H  0.16636838  0.12372690  0.08422876     0.15800
O167        O  0.10302943  0.27936627  0.03481736    -0.70700
O168        O  0.10434608  0.22978405  0.46489904    -0.70900
O169        O  0.10097063  0.22068625  0.02603796    -0.70800
O170        O  0.10572421  0.28858172  0.47344816    -0.70800
O171        O  0.15275586  0.28781292  0.47717271    -0.70800
O172        O  0.14799109  0.21915500  0.02955671    -0.70800
O173        O  0.15138454  0.22906120  0.46859367    -0.70700
O174        O  0.15004032  0.27782872  0.03843545    -0.70900
V175        V  0.10443356  0.25462150  0.99986597     1.35200
V176        V  0.14962254  0.25351514  0.00336916     1.35200
C177        C  0.12643967  0.28702074  0.04838896     0.78500
C178        C  0.12821724  0.22069656  0.45526372     0.78600
C179        C  0.12357350  0.20807530  0.03620884     0.78400
C180        C  0.12990036  0.29992488  0.46664593     0.78400
C181        C  0.46669604  0.47037914  0.02343284     0.87500
C182        C  0.48781541  0.45401554  0.00362651    -0.52700
C183        C  0.00582737  0.47197350  0.48704339     0.10500
C184        C  0.00087732  0.00509691  0.49140504     0.21400
C185        C  0.48588008  0.49098216  0.04317357    -0.53400
C186        C  0.00394078  0.00906374  0.02651833     0.10600
C187        C  0.45069958  0.49158219  0.00085682    -0.52900
C188        C  0.46845486  0.00968791  0.48413358     0.11100
H189        H  0.48917968  0.43015777  0.00371721     0.15700
H190        H  0.01541634  0.01966343  0.47766733     0.01400
H191        H  0.48525608  0.49112842  0.06819996     0.16000
H192        H  0.42738638  0.49391930  0.99918446     0.15800
C193        C  0.28732257  0.23073864  0.23006244     0.87500
C194        C  0.26688099  0.21368506  0.25157338    -0.52700
C195        C  0.24984539  0.23096218  0.26855559     0.10500
C196        C  0.25494741  0.26410733  0.26278782     0.21400
C197        C  0.26770731  0.25165953  0.21081047    -0.53400
C198        C  0.25003825  0.26883908  0.22758229     0.10600
C199        C  0.30477475  0.25115352  0.25152516    -0.52900
C200        C  0.28784930  0.26870000  0.26859958     0.11100
H201        H  0.26537830  0.18978261  0.25252688     0.15700
H202        H  0.24147261  0.27758451  0.27760945     0.01400
H203        H  0.26793379  0.25211702  0.18580843     0.16000
H204        H  0.32818847  0.25252422  0.25299370     0.15800
C205        C  0.12138962  0.18102827  0.05410971    -0.12200
C206        C  0.11974672  0.15756430  0.06777295    -0.13800
C207        C  0.06227086  0.03718973  0.08137514    -0.12300
C208        C  0.06937407  0.06476236  0.06813270     0.09900
C209        C  0.05385404  0.07484518  0.04180441    -0.12300
C210        C  0.03228683  0.05691177  0.02820160    -0.12300
C211        C  0.02564271  0.02901770  0.04124388     0.09900
C212        C  0.04062432  0.01959553  0.06817589    -0.12300
H213        H  0.07385546  0.02905425  0.10180624     0.13800
H214        H  0.05907179  0.09607652  0.03124345     0.13800
H215        H  0.02086541  0.06476973  0.00758262     0.13800
H216        H  0.03627280  0.99809599  0.07856664     0.13800
C217        C  0.12645034  0.30582325  0.07474669    -0.12200
C218        C  0.12704262  0.32114382  0.09721826    -0.13800
C219        C  0.18982356  0.32544323  0.21738621    -0.12300
C220        C  0.18037247  0.32110631  0.18679292     0.09900
C221        C  0.19463918  0.30065614  0.16917098    -0.12300
C222        C  0.21730090  0.28403282  0.18219339    -0.12300
C223        C  0.22685882  0.28795449  0.21307169     0.09900
C224        C  0.21299032  0.30934944  0.23026780    -0.12300
H225        H  0.17942807  0.34153147  0.23130623     0.13800
H226        H  0.18758260  0.29674225  0.14561195     0.13800
H227        H  0.22650685  0.26756654  0.16797565     0.13800
H228        H  0.21976362  0.31391034  0.25363812     0.13800
C229        C  0.13031662  0.34948112  0.43301421    -0.12200
C230        C  0.13103973  0.32655422  0.44783512    -0.13800
C231        C  0.08073200  0.45868988  0.45790845    -0.12300
C232        C  0.07587144  0.43471238  0.43827521     0.09900
C233        C  0.04746724  0.42356077  0.43460165    -0.12300
C234        C  0.02466736  0.43588797  0.45019417    -0.12300
C235        C  0.02962087  0.46004449  0.46922830     0.09900
C236        C  0.05776471  0.47145367  0.47287882    -0.12300
H237        H  0.10228034  0.46756340  0.46206986     0.13800
H238        H  0.04248907  0.40573581  0.41921161     0.13800
H239        H  0.00301737  0.42677450  0.44709172     0.13800
H240        H  0.06212508  0.48967142  0.48805276     0.13800
C241        C  0.13131744  0.18413007  0.40876216    -0.12200
C242        C  0.12931415  0.20082529  0.42990101    -0.13800
C243        C  0.21198026  0.17954232  0.32470906    -0.12300
C244        C  0.18306809  0.18821379  0.32069451     0.09900
C245        C  0.17658398  0.21276766  0.30149858    -0.12300
C246        C  0.19864517  0.22788441  0.28590273    -0.12300
C247        C  0.22733445  0.21819550  0.28873097     0.09900
C248        C  0.23389196  0.19420360  0.30861076    -0.12300
H249        H  0.21747788  0.16051000  0.33913600     0.13800
H250        H  0.15440538  0.21989852  0.29816761     0.13800
H251        H  0.19311583  0.24618002  0.27045378     0.13800
H252        H  0.25588782  0.18639485  0.31108502     0.13800
C253        C  0.06132890  0.36877991  0.20435232    -0.12200
C254        C  0.08166076  0.36497300  0.18808601    -0.13800
C255        C  0.07908286  0.39017245  0.34907572    -0.12200
C256        C  0.05972197  0.38554735  0.33038048    -0.13800
C257        C  0.41961602  0.37065665  0.17729481    -0.12200
C258        C  0.43850266  0.36965485  0.19709595    -0.13800
C259        C  0.40143048  0.42683608  0.05446222    -0.12300
C260        C  0.41348447  0.41322741  0.08106283     0.09900
C261        C  0.44336424  0.41558960  0.08696139    -0.12300
C262        C  0.46052108  0.43334674  0.06768248    -0.12300
C263        C  0.44800369  0.44926823  0.04246565     0.10100
C264        C  0.41844636  0.44440418  0.03525048    -0.12300
H265        H  0.37855073  0.42432033  0.04882934     0.13800
H266        H  0.45313697  0.40493683  0.10717559     0.13800
H267        H  0.48347336  0.43551278  0.07310625     0.13800
H268        H  0.40800890  0.45384924  0.01488489     0.13800
C269        C  0.43384265  0.38350251  0.32261229    -0.12200
C270        C  0.41223351  0.38372014  0.33768040    -0.13800
C271        C  0.33576537  0.30444166  0.32975958    -0.12300
C272        C  0.32601539  0.33366473  0.32841917     0.09900
C273        C  0.30320173  0.34090309  0.30738136    -0.12300
C274        C  0.29028428  0.31954462  0.28874067    -0.12300
C275        C  0.30038302  0.29066242  0.28990590     0.09900
C276        C  0.32328908  0.28325286  0.31045030    -0.12300
H277        H  0.35275432  0.29764565  0.34590220     0.13800
H278        H  0.29546145  0.36316852  0.30467790     0.13800
H279        H  0.27300036  0.32583893  0.27263745     0.13800
H280        H  0.33130296  0.26095299  0.31179378     0.13800
C281        C  0.37230871  0.32587105  0.09176496    -0.12200
C282        C  0.37258926  0.30697810  0.07273964    -0.13800
C283        C  0.37254516  0.33698533  0.42258901    -0.12200
C284        C  0.37650319  0.31815837  0.44233161    -0.13800
C285        C  0.37601523  0.18379821  0.06380172    -0.12200
C286        C  0.37226708  0.16408635  0.08254044    -0.13800
C287        C  0.29925655  0.17113656  0.17204938    -0.12300
C288        C  0.32932210  0.16700756  0.17341443     0.09900
C289        C  0.34653038  0.18514787  0.19244417    -0.12300
C290        C  0.33372627  0.20637096  0.21054581    -0.12300
C291        C  0.30338556  0.20977544  0.20984348     0.09900
C292        C  0.28654719  0.19199176  0.19006232    -0.12300
H293        H  0.28533252  0.15823955  0.15695958     0.13800
H294        H  0.36979396  0.18239918  0.19403828     0.13800
H295        H  0.34773558  0.21933080  0.22529898     0.13800
H296        H  0.26318368  0.19407446  0.18881037     0.13800
C297        C  0.16825561  0.40763452  0.13885154    -0.12200
C298        C  0.18532593  0.42774926  0.13591412    -0.13800
C299        C  0.30438956  0.42624608  0.14002626    -0.12200
C300        C  0.32408891  0.40914294  0.14016154    -0.13800
C301        C  0.18753864  0.05251417  0.11865666    -0.12200
C302        C  0.16765449  0.06930673  0.11490480    -0.13800
C303        C  0.32578271  0.07084661  0.12168382    -0.12200
C304        C  0.30889427  0.05038702  0.12136715    -0.13800
C305        C  0.32608355  0.42912321  0.38237484    -0.12200
C306        C  0.31040916  0.45007284  0.38306202    -0.13800
C307        C  0.16992250  0.44182322  0.38452602    -0.12200
C308        C  0.18981421  0.45917604  0.38157465    -0.13800
C309        C  0.20041293  0.08367507  0.37297801    -0.12200
C310        C  0.18229673  0.10259076  0.37001128    -0.13800
C311        C  0.38369374  0.19690073  0.43410109    -0.12200
C312        C  0.38744959  0.17752983  0.41623005    -0.13800
C313        C  0.34607697  0.08574808  0.37501782    -0.12200
C314        C  0.32469052  0.07015728  0.37398935    -0.13800
C315        C  0.45026937  0.06017445  0.41538357    -0.12300
C316        C  0.42946959  0.07832301  0.42814324     0.09900
C317        C  0.42253567  0.07418874  0.45928341    -0.12300
C318        C  0.43585263  0.05234327  0.47735668    -0.12300
C319        C  0.45653800  0.03410019  0.46478683     0.09900
C320        C  0.46401570  0.03833378  0.43379119    -0.12300
H321        H  0.45605732  0.06313694  0.39150254     0.13800
H322        H  0.40634877  0.08766101  0.46965757     0.13800
H323        H  0.42986519  0.04953867  0.00121464     0.13800
H324        H  0.47988197  0.02428892  0.42368831     0.13800
C325        C  0.41465383  0.11622766  0.16708692    -0.12200
C326        C  0.43667860  0.11579130  0.18253384    -0.13800
C327        C  0.06956399  0.12604599  0.30162207    -0.12200
C328        C  0.08994127  0.13146156  0.31852288    -0.13800
C329        C  0.06007782  0.11695144  0.17280183    -0.12200
C330        C  0.07747981  0.11371892  0.15280718    -0.13800
C331        C  0.44855000  0.12183420  0.31009415    -0.12200
C332        C  0.43262704  0.12280971  0.33174010    -0.13800
O333        O  0.03580355  0.09851407  0.77225590    -0.70700
O334        O  0.47266012  0.09371534  0.71426562    -0.70900
O335        O  0.03083135  0.09482539  0.71046215    -0.70800
O336        O  0.47774622  0.09696381  0.77593878    -0.70800
O337        O  0.47699253  0.14475367  0.77190737    -0.70800
O338        O  0.03023246  0.14259915  0.70615270    -0.70800
O339        O  0.47216674  0.14153683  0.71030806    -0.70700
O340        O  0.03487446  0.14629646  0.76785073    -0.70900
V341        V  0.00426649  0.09691485  0.74310563     1.35200
V342        V  0.50359584  0.14284787  0.73910992     1.35200
C343        C  0.04586221  0.12337650  0.77988992     0.78500
C344        C  0.46156732  0.11695220  0.70283878     0.78600
C345        C  0.03960775  0.11825536  0.69728388     0.78400
C346        C  0.46839061  0.12117237  0.78502688     0.78400
C347        C  0.39281844  0.14984400  0.90092292     0.87500
C348        C  0.36503417  0.13289555  0.89263918    -0.52700
C349        C  0.36980377  0.10622676  0.88019116     0.10500
C350        C  0.40219553  0.09901372  0.87686978     0.21400
C351        C  0.41021115  0.12893795  0.92213053    -0.53400
C352        C  0.41515360  0.10217613  0.90979525     0.10600
C353        C  0.40990277  0.15223877  0.87113178    -0.52900
C354        C  0.41492859  0.12554015  0.85854090     0.11100
H355        H  0.34349077  0.14071017  0.89746618     0.15700
H356        H  0.40604553  0.07725196  0.86666795     0.01400
H357        H  0.41768470  0.13473560  0.94518556     0.16000
H358        H  0.41792020  0.17293461  0.86137062     0.15800
O359        O  0.23021530  0.05008815  0.90049089    -0.70700
O360        O  0.28213367  0.48584921  0.90538009    -0.70900
O361        O  0.28840258  0.04438237  0.90086440    -0.70800
O362        O  0.22423992  0.49097533  0.90453359    -0.70800
O363        O  0.22326612  0.48875429  0.85446549    -0.70800
O364        O  0.28722605  0.04228415  0.85078036    -0.70800
O365        O  0.28119126  0.48369726  0.85528344    -0.70700
O366        O  0.22900403  0.04790885  0.85041881    -0.70900
V367        V  0.25616172  0.01785066  0.90182938     1.35200
V368        V  0.25512853  0.01576886  0.85370127     1.35200
C369        C  0.22072560  0.05982715  0.87469355     0.78500
C370        C  0.29058629  0.47408703  0.88119915     0.78600
C371        C  0.29909890  0.05176814  0.87521004     0.78400
C372        C  0.21322198  0.48043557  0.88011034     0.78400
O373        O  0.21860401  0.02256551  0.64881459    -0.70700
O374        O  0.27442292  0.46234159  0.65913816    -0.70900
O375        O  0.27672952  0.02114102  0.65017013    -0.70800
O376        O  0.21652676  0.46356944  0.65715087    -0.70800
O377        O  0.21632909  0.45836869  0.60738987    -0.70800
O378        O  0.27667964  0.01543313  0.60048817    -0.70800
O379        O  0.27416131  0.45662687  0.60944428    -0.70700
O380        O  0.21854136  0.01731339  0.59906935    -0.70900
V381        V  0.24656242  0.49234638  0.65284781     1.35200
V382        V  0.24642627  0.48707611  0.60506223     1.35200
C383        C  0.20916748  0.03017829  0.62227804     0.78500
C384        C  0.28342967  0.44906855  0.63611982     0.78600
C385        C  0.28682740  0.02801733  0.62409455     0.78400
C386        C  0.20662863  0.45089573  0.63339791     0.78400
C387        C  0.34306905  0.09755820  0.62743196     0.87500
C388        C  0.37223839  0.09172096  0.64376160    -0.52700
C389        C  0.38735650  0.11681087  0.65040258     0.10500
C390        C  0.37202860  0.14543207  0.64014518     0.21400
C391        C  0.32728738  0.11802588  0.64861297    -0.53400
C392        C  0.34213115  0.14342076  0.65516097     0.10600
C393        C  0.35002653  0.11658837  0.59871747    -0.52900
C394        C  0.36530226  0.14170196  0.60552373     0.11100
H395        H  0.38000460  0.06983548  0.64999550     0.15700
H396        H  0.38454861  0.16583060  0.64534539     0.01400
H397        H  0.30605226  0.11270674  0.65758508     0.16000
H398        H  0.34296340  0.11113866  0.57543642     0.15800
O399        O  0.40086410  0.28528729  0.97683270    -0.70700
O400        O  0.40066991  0.22004524  0.53412694    -0.70900
O401        O  0.40367908  0.22672560  0.97231541    -0.70800
O402        O  0.39840807  0.27885137  0.53872126    -0.70800
O403        O  0.35135930  0.27656108  0.53508342    -0.70800
O404        O  0.35665391  0.22409805  0.96835695    -0.70800
O405        O  0.35364801  0.21786973  0.53010084    -0.70700
O406        O  0.35383747  0.28253737  0.97328877    -0.70900
V407        V  0.40000279  0.25267648  0.50545941     1.35200
V408        V  0.35480136  0.25031316  0.50181483     1.35200
C409        C  0.37723955  0.29462357  0.96510297     0.78500
C410        C  0.37696147  0.20802381  0.54182145     0.78600
C411        C  0.38116731  0.21683263  0.95892653     0.78400
C412        C  0.37409746  0.28655738  0.54813741     0.78400
C413        C  0.34241718  0.40243521  0.87671672     0.87500
C414        C  0.37100001  0.40833031  0.86035964    -0.52700
C415        C  0.38538240  0.38328549  0.85401682     0.10500
C416        C  0.36983680  0.35470646  0.86441946     0.21400
C417        C  0.32512737  0.38168359  0.85580838    -0.53400
C418        C  0.33927255  0.35650551  0.84887707     0.10600
C419        C  0.35031358  0.38376395  0.90555118    -0.52900
C420        C  0.36473723  0.35870154  0.89904952     0.11100
H421        H  0.37896161  0.43022288  0.85406145     0.15700
H422        H  0.38216118  0.33467370  0.85937345     0.01400
H423        H  0.30321525  0.38662005  0.84785943     0.16000
H424        H  0.34454907  0.38947721  0.92878330     0.15800
C425        C  0.35083229  0.39367146  0.63396487     0.87500
C426        C  0.37105317  0.38807841  0.66199248    -0.52700
C427        C  0.39647193  0.37519494  0.65466244     0.10500
C428        C  0.39920133  0.36905666  0.62002385     0.21400
C429        C  0.36883308  0.41183646  0.61125000    -0.53400
C430        C  0.39410394  0.39905284  0.60368710     0.10600
C431        C  0.34642713  0.36378543  0.61885795    -0.52900
C432        C  0.37180838  0.35097185  0.61139902     0.11100
H433        H  0.36616934  0.39454669  0.68524180     0.15700
H434        H  0.41982081  0.35856046  0.61391122     0.01400
H435        H  0.36207217  0.43313389  0.60181251     0.16000
H436        H  0.32526204  0.35452084  0.61286599     0.15800
O437        O  0.02847797  0.39693714  0.73137167    -0.70700
O438        O  0.46881832  0.40418162  0.78969715    -0.70900
O439        O  0.02738609  0.40460103  0.79255615    -0.70800
O440        O  0.47025706  0.39688949  0.72854520    -0.70800
O441        O  0.46981573  0.34934076  0.73565171    -0.70800
O442        O  0.02676343  0.35716492  0.80049746    -0.70800
O443        O  0.46821647  0.35663050  0.79684002    -0.70700
O444        O  0.02805217  0.34947754  0.73932780    -0.70900
V445        V  0.99873174  0.39973392  0.76074022     1.35200
V446        V  0.99822875  0.35408530  0.76798486     1.35200
C447        C  0.03834968  0.37189987  0.72560481     0.78500
C448        C  0.45804978  0.38147696  0.80263475     0.78600
C449        C  0.03703742  0.38225118  0.80712722     0.78400
C450        C  0.46037649  0.37191790  0.72121763     0.78400
C451        C  0.11560802  0.14049792  0.83666187     0.87500
C452        C  0.10886288  0.15655296  0.86622292    -0.52700
C453        C  0.13305204  0.16531055  0.88241420     0.10500
C454        C  0.16179287  0.15668239  0.86772216     0.21400
C455        C  0.13533877  0.16176603  0.81860038    -0.53400
C456        C  0.15971741  0.17020303  0.83479748     0.10600
C457        C  0.13500559  0.11478969  0.84677617    -0.52900
C458        C  0.15933786  0.12321787  0.86284454     0.11100
H459        H  0.08704023  0.16162443  0.87303707     0.15700
H460        H  0.18149881  0.16358873  0.88105028     0.01400
H461        H  0.13095359  0.16863140  0.79479105     0.16000
H462        H  0.13061645  0.09212742  0.84048620     0.15800
C463        C  0.14460821  0.42300579  0.89172678     0.87500
C464        C  0.12560274  0.41435212  0.86365102    -0.52700
C465        C  0.10173874  0.39786508  0.87133157     0.10500
C466        C  0.09930037  0.39146704  0.90617894     0.21400
C467        C  0.12402142  0.43855548  0.91288670    -0.53400
C468        C  0.09997301  0.42233168  0.92054527     0.10600
C469        C  0.15210723  0.39394291  0.90866524    -0.52900
C470        C  0.12833964  0.37739914  0.91620958     0.11100
H471        H  0.12999655  0.42151162  0.84012940     0.15700
H472        H  0.08033781  0.37745219  0.91222253     0.01400
H473        H  0.12774029  0.46112645  0.91975464     0.16000
H474        H  0.17412702  0.38720798  0.91440734     0.15800
C475        C  0.10782324  0.35994773  0.67056598     0.87500
C476        C  0.10247408  0.34305691  0.64070990    -0.52700
C477        C  0.12711464  0.33837749  0.62491205     0.10500
C478        C  0.15478673  0.35121105  0.64039389     0.21400
C479        C  0.13064182  0.34215143  0.68907586    -0.53400
C480        C  0.15537572  0.33752256  0.67329078     0.10600
C481        C  0.12345000  0.38845599  0.66093064    -0.52900
C482        C  0.14816660  0.38389279  0.64535764     0.11100
H483        H  0.08126777  0.33501529  0.63310056     0.15700
H484        H  0.17488574  0.34770197  0.62748119     0.01400
H485        H  0.12746450  0.33387874  0.71247903     0.16000
H486        H  0.11642968  0.41020156  0.66722628     0.15800
C487        C  0.14094283  0.08568334  0.60805437     0.87500
C488        C  0.12370686  0.09321645  0.63660660    -0.52700
C489        C  0.09829470  0.10727289  0.62956429     0.10500
C490        C  0.09255066  0.11254926  0.59470077     0.21400
C491        C  0.11988354  0.06781043  0.58804471    -0.53400
C492        C  0.09430803  0.08147917  0.58127271     0.10600
C493        C  0.14525472  0.11491903  0.59043632    -0.52900
C494        C  0.11996009  0.12911951  0.58352331     0.11100
H495        H  0.13048168  0.08716483  0.66006527     0.15700
H496        H  0.07185253  0.12392931  0.58908662     0.01400
H497        H  0.12415254  0.04542016  0.58125112     0.16000
H498        H  0.16636847  0.12372855  0.58423021     0.15800
O499        O  0.10302802  0.27936763  0.53481693    -0.70700
O500        O  0.10434649  0.22978346  0.96489881    -0.70900
O501        O  0.10097007  0.22068744  0.52603835    -0.70800
O502        O  0.10572545  0.28858097  0.97344864    -0.70800
O503        O  0.15275712  0.28781129  0.97717259    -0.70800
O504        O  0.14799055  0.21915665  0.52955698    -0.70800
O505        O  0.15138492  0.22905960  0.96859342    -0.70700
O506        O  0.15003891  0.27783040  0.53843551    -0.70900
V507        V  0.10443264  0.25462247  0.49986590     1.35200
V508        V  0.14962163  0.25351676  0.50336933     1.35200
C509        C  0.12643811  0.28702236  0.54838867     0.78500
C510        C  0.12821744  0.22069552  0.95526343     0.78600
C511        C  0.12357307  0.20807679  0.53620931     0.78400
C512        C  0.12990172  0.29992367  0.96664613     0.78400
C513        C  0.46669659  0.47038132  0.52343258     0.87500
C514        C  0.48781589  0.45401782  0.50362608    -0.52700
C515        C  0.00582696  0.47197114  0.98704384     0.10500
C516        C  0.00087752  0.00509453  0.99140575     0.21400
C517        C  0.48588073  0.49098420  0.54317347    -0.53400
C518        C  0.00394066  0.00906579  0.52651769     0.10600
C519        C  0.45070004  0.49158452  0.50085678    -0.52900
C520        C  0.46845519  0.00968592  0.98413410     0.11100
H521        H  0.48918012  0.43016005  0.50371663     0.15700
H522        H  0.01541678  0.01966075  0.97766795     0.01400
H523        H  0.48525684  0.49113032  0.56819937     0.16000
H524        H  0.42738691  0.49392166  0.49918455     0.15800
C525        C  0.28732028  0.23073847  0.73006118     0.87500
C526        C  0.26687895  0.21368500  0.75157247    -0.52700
C527        C  0.24984340  0.23096221  0.76855463     0.10500
C528        C  0.25494529  0.26410732  0.76278652     0.21400
C529        C  0.26770476  0.25165905  0.71080930    -0.53400
C530        C  0.25003588  0.26883879  0.72758099     0.10600
C531        C  0.30477251  0.25115361  0.75152357    -0.52900
C532        C  0.28784717  0.26870011  0.76859800     0.11100
H533        H  0.26537639  0.18978252  0.75252626     0.15700
H534        H  0.24147048  0.27758468  0.77760825     0.01400
H535        H  0.26793097  0.25211631  0.68580657     0.16000
H536        H  0.32818632  0.25252432  0.75299214     0.15800
C537        C  0.12138950  0.18102987  0.55411048    -0.12200
C538        C  0.11974676  0.15756595  0.56777389    -0.13800
C539        C  0.06227066  0.03719158  0.58137475    -0.12300
C540        C  0.06937415  0.06476410  0.56813222     0.09900
C541        C  0.05385426  0.07484698  0.54180386    -0.12300
C542        C  0.03228695  0.05691371  0.52820109    -0.12300
C543        C  0.02564255  0.02901974  0.54124336     0.09900
C544        C  0.04062402  0.01959748  0.56817549    -0.12300
H545        H  0.07385508  0.02905611  0.60180585     0.13800
H546        H  0.05907220  0.09607828  0.53124286     0.13800
H547        H  0.02086551  0.06477182  0.50758183     0.13800
H548        H  0.03627240  0.99809821  0.57856616     0.13800
C549        C  0.12644850  0.30582513  0.57474615    -0.12200
C550        C  0.12704085  0.32114590  0.59721754    -0.13800
C551        C  0.18982228  0.32544420  0.71738503    -0.12300
C552        C  0.18037083  0.32110700  0.68679182     0.09900
C553        C  0.19463677  0.30065622  0.66917000    -0.12300
C554        C  0.21729820  0.28403252  0.68219238    -0.12300
C555        C  0.22685661  0.28795437  0.71307046     0.09900
C556        C  0.21298886  0.30934990  0.73026643    -0.12300
H557        H  0.17942768  0.34153240  0.73130454     0.13800
H558        H  0.18757982  0.29674225  0.64561105     0.13800
H559        H  0.22650378  0.26756559  0.66797462     0.13800
H560        H  0.21976261  0.31391102  0.75363664     0.13800
C561        C  0.13031789  0.34947980  0.93301438    -0.12200
C562        C  0.13104127  0.32655295  0.94783529    -0.13800
C563        C  0.08073192  0.45868722  0.95791001    -0.12300
C564        C  0.07587149  0.43471007  0.93827629     0.09900
C565        C  0.04746734  0.42355865  0.93460242    -0.12300
C566        C  0.02466723  0.43588563  0.95019468    -0.12300
C567        C  0.02962066  0.46004201  0.96922910     0.09900
C568        C  0.05776454  0.47145098  0.97288028    -0.12300
H569        H  0.10228040  0.46756064  0.96207179     0.13800
H570        H  0.04248917  0.40573331  0.91921161     0.13800
H571        H  0.00301745  0.42677242  0.94709188     0.13800
H572        H  0.06212474  0.48966828  0.98805431     0.13800
C573        C  0.13131689  0.18412902  0.90876182    -0.12200
C574        C  0.12931390  0.20082429  0.92990066    -0.13800
C575        C  0.21197919  0.17954247  0.82470875    -0.12300
C576        C  0.18306683  0.18821323  0.82069393     0.09900
C577        C  0.17658235  0.21276671  0.80149766    -0.12300
C578        C  0.19864321  0.22788380  0.78590169    -0.12300
C579        C  0.22733271  0.21819553  0.78873025     0.09900
C580        C  0.23389058  0.19420407  0.80861042    -0.12300
H581        H  0.21747717  0.16051035  0.83913600     0.13800
H582        H  0.15440320  0.21989717  0.79816641     0.13800
H583        H  0.19311359  0.24617899  0.77045248     0.13800
H584        H  0.25588696  0.18639570  0.81108489     0.13800
C585        C  0.06132858  0.36878275  0.70435211    -0.12200
C586        C  0.08166021  0.36497579  0.68808552    -0.13800
C587        C  0.07908294  0.39017117  0.84907641    -0.12200
C588        C  0.05972198  0.38554636  0.83038115    -0.13800
C589        C  0.41961666  0.37065936  0.67729422    -0.12200
C590        C  0.43850307  0.36965748  0.69709562    -0.13800
C591        C  0.40143120  0.42683704  0.55446075    -0.12300
C592        C  0.41348504  0.41322854  0.58106156     0.09900
C593        C  0.44336472  0.41559124  0.58696076    -0.12300
C594        C  0.46052155  0.43334884  0.56768220    -0.12300
C595        C  0.44800428  0.44927021  0.54246524     0.10100
C596        C  0.41844715  0.44440562  0.53524940    -0.12300
H597        H  0.37855186  0.42432092  0.54882749     0.13800
H598        H  0.45313716  0.40493879  0.60717481     0.13800
H599        H  0.48347369  0.43551525  0.57310643     0.13800
H600        H  0.40801002  0.45385043  0.51488389     0.13800
C601        C  0.43384238  0.38350116  0.82261261    -0.12200
C602        C  0.41223305  0.38371844  0.83768043    -0.13800
C603        C  0.33576287  0.30444062  0.82975887    -0.12300
C604        C  0.32601425  0.33366409  0.82841764     0.09900
C605        C  0.30320154  0.34090325  0.80737889    -0.12300
C606        C  0.29028373  0.31954501  0.78873818    -0.12300
C607        C  0.30038109  0.29066234  0.78990434     0.09900
C608        C  0.32328625  0.28325200  0.81044966    -0.12300
H609        H  0.35275133  0.29764406  0.84590246     0.13800
H610        H  0.29546244  0.36316894  0.80467488     0.13800
H611        H  0.27300035  0.32583989  0.77263407     0.13800
H612        H  0.33129899  0.26095191  0.81179378     0.13800
C613        C  0.37231003  0.32587166  0.59176532    -0.12200
C614        C  0.37259054  0.30697861  0.57274010    -0.13800
C615        C  0.37254353  0.33698323  0.92258794    -0.12200
C616        C  0.37650159  0.31815647  0.94233074    -0.13800
C617        C  0.37601487  0.18379891  0.56380126    -0.12200
C618        C  0.37226664  0.16408701  0.58253998    -0.13800
C619        C  0.29925450  0.17113549  0.67204914    -0.12300
C620        C  0.32932031  0.16700758  0.67341341     0.09900
C621        C  0.34652845  0.18514881  0.69244227    -0.12300
C622        C  0.33372412  0.20637181  0.71054379    -0.12300
C623        C  0.30338329  0.20977524  0.70984234     0.09900
C624        C  0.28654507  0.19199066  0.69006206    -0.12300
H625        H  0.28533073  0.15823805  0.65696025     0.13800
H626        H  0.36979208  0.18240101  0.69403581     0.13800
H627        H  0.34773347  0.21933252  0.72529612     0.13800
H628        H  0.26318102  0.19407267  0.68881067     0.13800
C629        C  0.16825560  0.40763576  0.63885132    -0.12200
C630        C  0.18532601  0.42775042  0.63591418    -0.13800
C631        C  0.30438972  0.42624689  0.64002493    -0.12200
C632        C  0.32408922  0.40914393  0.64016000    -0.13800
C633        C  0.18753834  0.05251528  0.61865733    -0.12200
C634        C  0.16765418  0.06930785  0.61490549    -0.13800
C635        C  0.32578271  0.07084675  0.62168265    -0.12200
C636        C  0.30889427  0.05038717  0.62136602    -0.13800
C637        C  0.32608316  0.42912185  0.88237452    -0.12200
C638        C  0.31040896  0.45007158  0.88306199    -0.13800
C639        C  0.16992223  0.44182265  0.88452658    -0.12200
C640        C  0.18981397  0.45917541  0.88157512    -0.13800
C641        C  0.20041277  0.08367447  0.87297857    -0.12200
C642        C  0.18229663  0.10259015  0.87001149    -0.13800
C643        C  0.38369359  0.19689886  0.93410192    -0.12200
C644        C  0.38744945  0.17752782  0.91623104    -0.13800
C645        C  0.34607694  0.08574594  0.87501891    -0.12200
C646        C  0.32469038  0.07015528  0.87399040    -0.13800
C647        C  0.45026924  0.06017228  0.91538408    -0.12300
C648        C  0.42946992  0.07832118  0.92814411     0.09900
C649        C  0.42253666  0.07418731  0.95928451    -0.12300
C650        C  0.43585381  0.05234191  0.97735766    -0.12300
C651        C  0.45653863  0.03409841  0.96478750     0.09900
C652        C  0.46401567  0.03833162  0.93379163    -0.12300
H653        H  0.45605666  0.06313447  0.89150305     0.13800
H654        H  0.40635014  0.08765974  0.96965891     0.13800
H655        H  0.42986360  0.04953980  0.50121337     0.13800
H656        H  0.47988158  0.02428630  0.92368841     0.13800
C657        C  0.41465259  0.11622840  0.66708748    -0.12200
C658        C  0.43667720  0.11579159  0.68253468    -0.13800
C659        C  0.06956364  0.12604391  0.80162201    -0.12200
C660        C  0.08994086  0.13145963  0.81852287    -0.13800
C661        C  0.06007650  0.11695112  0.67280164    -0.12200
C662        C  0.07747872  0.11371900  0.65280713    -0.13800
C663        C  0.44854983  0.12183238  0.81009513    -0.12200
C664        C  0.43262691  0.12280780  0.83174110    -0.13800
O665        O  0.03580483  0.59851521  0.27225585    -0.70700
O666        O  0.47266211  0.59371593  0.21426481    -0.70900
O667        O  0.03083340  0.59482606  0.21046216    -0.70800
O668        O  0.47774744  0.59696494  0.27593795    -0.70800
O669        O  0.47699386  0.64475479  0.27190630    -0.70800
O670        O  0.03023429  0.64259978  0.20615209    -0.70800
O671        O  0.47216844  0.64153739  0.21030697    -0.70700
O672        O  0.03487586  0.64629756  0.26785008    -0.70900
V673        V  0.00426814  0.59691572  0.24310520     1.35200
V674        V  0.50359738  0.64284875  0.23910905     1.35200
C675        C  0.04586349  0.62337770  0.27988963     0.78500
C676        C  0.46156925  0.61695264  0.20283773     0.78600
C677        C  0.03960980  0.61825592  0.19728369     0.78400
C678        C  0.46839182  0.62117355  0.28502586     0.78400
C679        C  0.39281942  0.64984568  0.40092142     0.87500
C680        C  0.36503517  0.63289714  0.39263788    -0.52700
C681        C  0.36980483  0.60622821  0.38019014     0.10500
C682        C  0.40219660  0.59901521  0.37686885     0.21400
C683        C  0.41021217  0.62893988  0.42212926    -0.53400
C684        C  0.41515464  0.60217790  0.40979431     0.10600
C685        C  0.40990375  0.65224027  0.37113028    -0.52900
C686        C  0.41492962  0.62554150  0.35853970     0.11100
H687        H  0.34349185  0.64071171  0.39746480     0.15700
H688        H  0.40604663  0.57725328  0.36666719     0.01400
H689        H  0.41768568  0.63473776  0.44518418     0.16000
H690        H  0.41792105  0.67293586  0.36136899     0.15800
O691        O  0.23021651  0.55008897  0.40049060    -0.70700
O692        O  0.28213312  0.98585039  0.40537911    -0.70900
O693        O  0.28840383  0.54438363  0.40086417    -0.70800
O694        O  0.22423937  0.99097613  0.40453268    -0.70800
O695        O  0.22326553  0.98875560  0.35446454    -0.70800
O696        O  0.28722730  0.54228519  0.35078014    -0.70800
O697        O  0.28119072  0.98369888  0.35528243    -0.70700
O698        O  0.22900521  0.54790938  0.35041854    -0.70900
V699        V  0.25616315  0.51785168  0.40182928     1.35200
V700        V  0.25513003  0.51576963  0.35370119     1.35200
C701        C  0.22072672  0.55982775  0.37469323     0.78500
C702        C  0.29058579  0.97408843  0.38119806     0.78600
C703        C  0.29910010  0.55176936  0.37520976     0.78400
C704        C  0.21322149  0.98043655  0.38010931     0.78400
O705        O  0.21860473  0.52256504  0.14881392    -0.70700
O706        O  0.27442197  0.96234090  0.15913951    -0.70900
O707        O  0.27673019  0.52114077  0.15017029    -0.70800
O708        O  0.21652586  0.96356838  0.15715129    -0.70800
O709        O  0.21632904  0.95836729  0.10739036    -0.70800
O710        O  0.27668088  0.51543226  0.10048845    -0.70800
O711        O  0.27416122  0.95662608  0.10944566    -0.70700
O712        O  0.21854255  0.51731212  0.09906880    -0.70900
V713        V  0.24656139  0.99234551  0.15284857     1.35200
V714        V  0.24642595  0.98707504  0.10506302     1.35200
C715        C  0.20916843  0.53017735  0.12227717     0.78500
C716        C  0.28342909  0.94906778  0.13612140     0.78600
C717        C  0.28682832  0.52801686  0.12409475     0.78400
C718        C  0.20662822  0.95089443  0.13339826     0.78400
C719        C  0.34307032  0.59755778  0.12743196     0.87500
C720        C  0.37223986  0.59172047  0.14376120    -0.52700
C721        C  0.38735824  0.61681029  0.15040188     0.10500
C722        C  0.37203036  0.64543148  0.14014465     0.21400
C723        C  0.32728911  0.61802570  0.14861311    -0.53400
C724        C  0.34213316  0.64342046  0.15516086     0.10600
C725        C  0.35002762  0.61658786  0.09871735    -0.52900
C726        C  0.36530361  0.64170136  0.10552332     0.11100
H727        H  0.38000610  0.56983472  0.14999514     0.15700
H728        H  0.38455062  0.66583013  0.14534473     0.01400
H729        H  0.30605381  0.61270681  0.15758555     0.16000
H730        H  0.34296409  0.61113813  0.07543620     0.15800
O731        O  0.40086503  0.78528863  0.47683189    -0.70700
O732        O  0.40066985  0.72004559  0.03412674    -0.70900
O733        O  0.40367983  0.72672695  0.47231402    -0.70800
O734        O  0.39840658  0.77885179  0.03872017    -0.70800
O735        O  0.35135785  0.77656013  0.03508270    -0.70800
O736        O  0.35665467  0.72409944  0.46835540    -0.70800
O737        O  0.35364799  0.71786876  0.03010067    -0.70700
O738        O  0.35383842  0.78253877  0.47328751    -0.70900
V739        V  0.40000185  0.75267646  0.00545875     1.35200
V740        V  0.35480045  0.75031197  0.00181437     1.35200
C741        C  0.37724058  0.79462510  0.46510211     0.78500
C742        C  0.37696173  0.70802351  0.04182126     0.78600
C743        C  0.38116809  0.71683412  0.45892498     0.78400
C744        C  0.37409581  0.78655722  0.04813640     0.78400
C745        C  0.34241735  0.90243680  0.37671614     0.87500
C746        C  0.37099989  0.90833216  0.36035854    -0.52700
C747        C  0.38538261  0.88328746  0.35401594     0.10500
C748        C  0.36983763  0.85470833  0.36441929     0.21400
C749        C  0.32512758  0.88168456  0.35580837    -0.53400
C750        C  0.33927319  0.85650657  0.34887730     0.10600
C751        C  0.35031441  0.88376608  0.40555082    -0.52900
C752        C  0.36473837  0.85870377  0.39904935     0.11100
H753        H  0.37896098  0.93022464  0.35405983     0.15700
H754        H  0.38216236  0.83467572  0.35937346     0.01400
H755        H  0.30321566  0.88662049  0.34785980     0.16000
H756        H  0.34454995  0.88947946  0.42878284     0.15800
C757        C  0.35083103  0.89367017  0.13396642     0.87500
C758        C  0.37105205  0.88807608  0.16199371    -0.52700
C759        C  0.39647066  0.87519268  0.15466293     0.10500
C760        C  0.39919974  0.86905544  0.12002408     0.21400
C761        C  0.36883181  0.91183581  0.11125201    -0.53400
C762        C  0.39410248  0.89905215  0.10368845     0.10600
C763        C  0.34642552  0.86378470  0.11885844    -0.52900
C764        C  0.37180655  0.85097115  0.11139882     0.11100
H765        H  0.36616854  0.89454381  0.18524321     0.15700
H766        H  0.41981897  0.85855932  0.11391092     0.01400
H767        H  0.36207109  0.93313327  0.10181539     0.16000
H768        H  0.32526012  0.85452034  0.11286633     0.15800
O769        O  0.02847827  0.89693514  0.23137003    -0.70700
O770        O  0.46881831  0.90418212  0.28969482    -0.70900
O771        O  0.02738601  0.90460120  0.29255410    -0.70800
O772        O  0.47025722  0.89688790  0.22854325    -0.70800
O773        O  0.46981567  0.84933935  0.23565138    -0.70800
O774        O  0.02676292  0.85716534  0.30049729    -0.70800
O775        O  0.46821599  0.85663118  0.29683927    -0.70700
O776        O  0.02805221  0.84947578  0.23932803    -0.70900
V777        V  0.99873182  0.89973320  0.26073820     1.35200
V778        V  0.99822851  0.85408477  0.26798455     1.35200
C779        C  0.03835001  0.87189760  0.22560435     0.78500
C780        C  0.45804951  0.88147794  0.30263311     0.78600
C781        C  0.03703704  0.88225177  0.30712615     0.78400
C782        C  0.46037647  0.87191613  0.22121662     0.78400
C783        C  0.11560938  0.64049890  0.33666152     0.87500
C784        C  0.10886434  0.65655425  0.36622241    -0.52700
C785        C  0.13305356  0.66531168  0.38241367     0.10500
C786        C  0.16179440  0.65668311  0.36772183     0.21400
C787        C  0.13534041  0.66176669  0.31859981    -0.53400
C788        C  0.15971912  0.67020349  0.33479700     0.10600
C789        C  0.13500666  0.61479065  0.34677611    -0.52900
C790        C  0.15933896  0.62321852  0.36284441     0.11100
H791        H  0.08704180  0.66162594  0.37303643     0.15700
H792        H  0.18150014  0.66358922  0.38104979     0.01400
H793        H  0.13095542  0.66863179  0.29479092     0.16000
H794        H  0.13061716  0.59212773  0.34048606     0.15800
C795        C  0.14460763  0.92300712  0.39172570     0.87500
C796        C  0.12560211  0.91435348  0.36365005    -0.52700
C797        C  0.10173794  0.89786682  0.37133058     0.10500
C798        C  0.09929942  0.89146909  0.40617797     0.21400
C799        C  0.12402103  0.93855727  0.41288548    -0.53400
C800        C  0.09997238  0.92233382  0.42054407     0.10600
C801        C  0.15210630  0.89394423  0.40866439    -0.52900
C802        C  0.12833842  0.87740084  0.41620878     0.11100
H803        H  0.12999615  0.92151282  0.34012797     0.15700
H804        H  0.08033660  0.87745443  0.41222161     0.01400
H805        H  0.12774016  0.96112812  0.41975323     0.16000
H806        H  0.17412576  0.88720906  0.41440647     0.15800
C807        C  0.10782433  0.85994480  0.17056640     0.87500
C808        C  0.10247542  0.84305373  0.14071045    -0.52700
C809        C  0.12711599  0.83837484  0.12491243     0.10500
C810        C  0.15478785  0.85120913  0.14039405     0.21400
C811        C  0.13064344  0.84214914  0.18907631    -0.53400
C812        C  0.15537741  0.83752084  0.17329101     0.10600
C813        C  0.12345039  0.88845341  0.16093081    -0.52900
C814        C  0.14816703  0.88389070  0.14535765     0.11100
H815        H  0.08126919  0.83501165  0.13310119     0.15700
H816        H  0.17488699  0.84770048  0.12748115     0.01400
H817        H  0.12746651  0.83387661  0.21247923     0.16000
H818        H  0.11642972  0.91019869  0.16722640     0.15800
C819        C  0.14094377  0.58568220  0.10805333     0.87500
C820        C  0.12370831  0.59321568  0.13660579    -0.52700
C821        C  0.09829613  0.60727214  0.12956384     0.10500
C822        C  0.09255145  0.61254812  0.09470035     0.21400
C823        C  0.11988413  0.56780918  0.08804426    -0.53400
C824        C  0.09430858  0.58147786  0.08127259     0.10600
C825        C  0.14525547  0.61491770  0.09043491    -0.52900
C826        C  0.11996077  0.62911816  0.08352226     0.11100
H827        H  0.13048359  0.58716431  0.16006458     0.15700
H828        H  0.07185341  0.62392810  0.08908648     0.01400
H829        H  0.12415306  0.54541868  0.08125068     0.16000
H830        H  0.16636911  0.62372713  0.08422840     0.15800
O831        O  0.10302920  0.77936603  0.03481663    -0.70700
O832        O  0.10434655  0.72978410  0.46489782    -0.70900
O833        O  0.10097088  0.72068601  0.02603750    -0.70800
O834        O  0.10572405  0.78858176  0.47344710    -0.70800
O835        O  0.15275570  0.78781333  0.47717190    -0.70800
O836        O  0.14799136  0.71915512  0.02955622    -0.70800
O837        O  0.15138500  0.72906160  0.46859284    -0.70700
O838        O  0.15004010  0.77782882  0.03843476    -0.70900
V839        V  0.10443355  0.75462113  0.99986534     1.35200
V840        V  0.14962253  0.75351519  0.00336855     1.35200
C841        C  0.12643938  0.78702064  0.04838827     0.78500
C842        C  0.12821786  0.72069682  0.45526269     0.78600
C843        C  0.12357384  0.70807531  0.03620846     0.78400
C844        C  0.12990016  0.79992511  0.46664502     0.78400
C845        C  0.46669526  0.97037936  0.02343278     0.87500
C846        C  0.48781463  0.95401551  0.00362670    -0.52700
C847        C  0.00582661  0.97197343  0.48704294     0.10500
C848        C  0.00087835  0.50509697  0.49140558     0.21400
C849        C  0.48587932  0.99098233  0.04317366    -0.53400
C850        C  0.00394139  0.50906379  0.02651834     0.10600
C851        C  0.45069902  0.99158236  0.00085655    -0.52900
C852        C  0.46845599  0.50968824  0.48413425     0.11100
H853        H  0.48917876  0.93015766  0.00371750     0.15700
H854        H  0.01541754  0.51966354  0.47766759     0.01400
H855        H  0.48525523  0.99112870  0.06819941     0.16000
H856        H  0.42738604  0.99391971  0.99918400     0.15800
C857        C  0.28732314  0.73073844  0.23006135     0.87500
C858        C  0.26688147  0.71368476  0.25157219    -0.52700
C859        C  0.24984584  0.73096198  0.26855433     0.10500
C860        C  0.25494787  0.76410713  0.26278665     0.21400
C861        C  0.26770797  0.75165937  0.21080934    -0.53400
C862        C  0.25003893  0.76883894  0.22758110     0.10600
C863        C  0.30477528  0.75115327  0.25152420    -0.52900
C864        C  0.28784976  0.76869973  0.26859856     0.11100
H865        H  0.26537882  0.68978277  0.25252569     0.15700
H866        H  0.24147309  0.77758420  0.27760812     0.01400
H867        H  0.26793451  0.75211688  0.18580723     0.16000
H868        H  0.32818898  0.75252392  0.25299288     0.15800
C869        C  0.12139014  0.68102844  0.05410953    -0.12200
C870        C  0.11974732  0.65756453  0.06777289    -0.13800
C871        C  0.06227131  0.53719022  0.08137504    -0.12300
C872        C  0.06937459  0.56476272  0.06813243     0.09900
C873        C  0.05385457  0.57484543  0.04180406    -0.12300
C874        C  0.03228734  0.55691191  0.02820139    -0.12300
C875        C  0.02564323  0.52901792  0.04124382     0.09900
C876        C  0.04062480  0.51959584  0.06817597    -0.12300
H877        H  0.07385602  0.52905477  0.10180638     0.13800
H878        H  0.05907230  0.59607658  0.03124300     0.13800
H879        H  0.02086589  0.56476979  0.00758231     0.13800
H880        H  0.03627340  0.49809672  0.07856665     0.13800
C881        C  0.12644995  0.80582305  0.07474607    -0.12200
C882        C  0.12704233  0.82114351  0.09721772    -0.13800
C883        C  0.18982451  0.82544348  0.21738512    -0.12300
C884        C  0.18037306  0.82110605  0.18679195     0.09900
C885        C  0.19463955  0.80065574  0.16917009    -0.12300
C886        C  0.21730143  0.78403248  0.18219228    -0.12300
C887        C  0.22685961  0.78795447  0.21307050     0.09900
C888        C  0.21299144  0.80934967  0.23026643    -0.12300
H889        H  0.17942952  0.84153144  0.23130469     0.13800
H890        H  0.18758262  0.79674157  0.14561092     0.13800
H891        H  0.22650708  0.76756626  0.16797483     0.13800
H892        H  0.21976512  0.81391088  0.25363690     0.13800
C893        C  0.13031626  0.84948145  0.43301356    -0.12200
C894        C  0.13103945  0.82655450  0.44783431    -0.13800
C895        C  0.08073143  0.95868998  0.45790835    -0.12300
C896        C  0.07587094  0.93471263  0.43827487     0.09900
C897        C  0.04746675  0.92356121  0.43460110    -0.12300
C898        C  0.02466679  0.93588824  0.45019351    -0.12300
C899        C  0.02962024  0.96004460  0.46922791     0.09900
C900        C  0.05776408  0.97145362  0.47287865    -0.12300
H901        H  0.10227992  0.96756346  0.46206992     0.13800
H902        H  0.04248854  0.90573605  0.41921056     0.13800
H903        H  0.00301683  0.92677489  0.44709085     0.13800
H904        H  0.06212446  0.98967156  0.48805307     0.13800
C905        C  0.13131843  0.68413025  0.40876123    -0.12200
C906        C  0.12931506  0.70082554  0.42989999    -0.13800
C907        C  0.21198104  0.67954260  0.32470846    -0.12300
C908        C  0.18306873  0.68821343  0.32069337     0.09900
C909        C  0.17658428  0.71276679  0.30149672    -0.12300
C910        C  0.19864547  0.72788351  0.28590085    -0.12300
C911        C  0.22733490  0.71819529  0.28872966     0.09900
C912        C  0.23389256  0.69420396  0.30861009    -0.12300
H913        H  0.21747888  0.66051062  0.33913597     0.13800
H914        H  0.15440596  0.71989706  0.29816537     0.13800
H915        H  0.19311585  0.74617901  0.27045110     0.13800
H916        H  0.25588901  0.68639553  0.31108483     0.13800
C917        C  0.06132931  0.86877963  0.20435221    -0.12200
C918        C  0.08166117  0.86497245  0.18808599    -0.13800
C919        C  0.07908223  0.89017277  0.34907543    -0.12200
C920        C  0.05972138  0.88554759  0.33038015    -0.13800
C921        C  0.41961585  0.87065689  0.17729413    -0.12200
C922        C  0.43850271  0.86965514  0.19709502    -0.13800
C923        C  0.40142918  0.92683724  0.05446260    -0.12300
C924        C  0.41348335  0.91322806  0.08106285     0.09900
C925        C  0.44336314  0.91558978  0.08696109    -0.12300
C926        C  0.46052027  0.93334688  0.06768229    -0.12300
C927        C  0.44800269  0.94926868  0.04246568     0.10100
C928        C  0.41844515  0.94440535  0.03525068    -0.12300
H929        H  0.37854976  0.92432198  0.04882999     0.13800
H930        H  0.45313610  0.90493650  0.10717528     0.13800
H931        H  0.48347167  0.93551245  0.07310564     0.13800
H932        H  0.40800794  0.95385028  0.01488618     0.13800
C933        C  0.43384213  0.88350297  0.32261091    -0.12200
C934        C  0.41223298  0.88372055  0.33767901    -0.13800
C935        C  0.33576510  0.80444164  0.32975884    -0.12300
C936        C  0.32601521  0.83366468  0.32841822     0.09900
C937        C  0.30320177  0.84090295  0.30738010    -0.12300
C938        C  0.29028459  0.81954442  0.28873936    -0.12300
C939        C  0.30038332  0.79066222  0.28990485     0.09900
C940        C  0.32328913  0.78325277  0.31044960    -0.12300
H941        H  0.35275429  0.79764560  0.34590211     0.13800
H942        H  0.29546148  0.86316848  0.30467647     0.13800
H943        H  0.27300075  0.82583867  0.27263583     0.13800
H944        H  0.33130301  0.76095270  0.31179330     0.13800
C945        C  0.37230793  0.82587141  0.09176443    -0.12200
C946        C  0.37258850  0.80697857  0.07273898    -0.13800
C947        C  0.37254476  0.83698550  0.42258782    -0.12200
C948        C  0.37650278  0.81815843  0.44233031    -0.13800
C949        C  0.37601574  0.68379848  0.06380095    -0.12200
C950        C  0.37226781  0.66408641  0.08253951    -0.13800
C951        C  0.29925709  0.67113628  0.17204838    -0.12300
C952        C  0.32932269  0.66700751  0.17341325     0.09900
C953        C  0.34653104  0.68514804  0.19244275    -0.12300
C954        C  0.33372686  0.70637111  0.21054443    -0.12300
C955        C  0.30338611  0.70977527  0.20984237     0.09900
C956        C  0.28654772  0.69199143  0.19006139    -0.12300
H957        H  0.28533308  0.65823918  0.15695877     0.13800
H958        H  0.36979431  0.68239959  0.19403667     0.13800
H959        H  0.34773608  0.71933105  0.22529725     0.13800
H960        H  0.26318415  0.69407394  0.18880962     0.13800
C961        C  0.16825563  0.90763405  0.13885137    -0.12200
C962        C  0.18532578  0.92774893  0.13591434    -0.13800
C963        C  0.30438890  0.92624596  0.14002700    -0.12200
C964        C  0.32408816  0.90914272  0.14016214    -0.13800
C965        C  0.18753930  0.55251424  0.11865592    -0.12200
C966        C  0.16765516  0.56930677  0.11490408    -0.13800
C967        C  0.32578366  0.57084641  0.12168288    -0.12200
C968        C  0.30889514  0.55038684  0.12136624    -0.13800
C969        C  0.32608293  0.92912334  0.38237356    -0.12200
C970        C  0.31040855  0.95007299  0.38306077    -0.13800
C971        C  0.16992184  0.94182359  0.38452539    -0.12200
C972        C  0.18981361  0.95917628  0.38157390    -0.13800
C973        C  0.20041377  0.58367496  0.37297820    -0.12200
C974        C  0.18229762  0.60259065  0.37001126    -0.13800
C975        C  0.38369442  0.69690057  0.43410020    -0.12200
C976        C  0.38745036  0.67752961  0.41622928    -0.13800
C977        C  0.34607805  0.58574729  0.37501824    -0.12200
C978        C  0.32469149  0.57015660  0.37398999    -0.13800
C979        C  0.45026975  0.56017365  0.41538367    -0.12300
C980        C  0.42947084  0.57832310  0.42814353     0.09900
C981        C  0.42253790  0.57418974  0.45928406    -0.12300
C982        C  0.43585479  0.55234440  0.47735743    -0.12300
C983        C  0.45653927  0.53410046  0.46478739     0.09900
C984        C  0.46401610  0.53833306  0.43379135    -0.12300
H985        H  0.45605706  0.56313538  0.39150221     0.13800
H986        H  0.40635136  0.58766287  0.46965861     0.13800
H987        H  0.42986399  0.54953769  0.00121396     0.13800
H988        H  0.47988156  0.52428754  0.42368834     0.13800
C989        C  0.41465452  0.61622792  0.16708643    -0.12200
C990        C  0.43667922  0.61579164  0.18253351    -0.13800
C991        C  0.06956486  0.62604521  0.30162177    -0.12200
C992        C  0.08994215  0.63146082  0.31852257    -0.13800
C993        C  0.06007864  0.61695144  0.17280159    -0.12200
C994        C  0.07748067  0.61371887  0.15280699    -0.13800
C995        C  0.44855091  0.62183366  0.31009399    -0.12200
C996        C  0.43262793  0.62280904  0.33173992    -0.13800
O997        O  0.03580414  0.59851378  0.77225553    -0.70700
O998        O  0.47266083  0.59371579  0.71426498    -0.70900
O999        O  0.03083216  0.59482539  0.71046176    -0.70800
O1000       O  0.47774680  0.59696400  0.77593819    -0.70800
O1001       O  0.47699356  0.64475388  0.77190704    -0.70800
O1002       O  0.03023361  0.64259916  0.70615250    -0.70800
O1003       O  0.47216776  0.64153729  0.71030769    -0.70700
O1004       O  0.03487546  0.64629618  0.76785055    -0.70900
V1005       V  0.00426717  0.59691492  0.74310513     1.35200
V1006       V  0.50359686  0.64284798  0.73910961     1.35200
C1007       C  0.04586299  0.62337609  0.77988969     0.78500
C1008       C  0.46156817  0.61695278  0.70283826     0.78600
C1009       C  0.03960883  0.61825534  0.69728365     0.78400
C1010       C  0.46839146  0.62117261  0.78502647     0.78400
C1011       C  0.39281939  0.64984426  0.90092272     0.87500
C1012       C  0.36503522  0.63289578  0.89263871    -0.52700
C1013       C  0.36980492  0.60622704  0.88019069     0.10500
C1014       C  0.40219671  0.59901397  0.87686954     0.21400
C1015       C  0.41021198  0.62893818  0.92213047    -0.53400
C1016       C  0.41515453  0.60217638  0.90979514     0.10600
C1017       C  0.40990392  0.65223909  0.87113171    -0.52900
C1018       C  0.41492984  0.62554050  0.85854082     0.11100
H1019       H  0.34349163  0.64071043  0.89746558     0.15700
H1020       H  0.40604675  0.57725244  0.86666779     0.01400
H1021       H  0.41768524  0.63473568  0.94518545     0.16000
H1022       H  0.41792130  0.67293495  0.86137061     0.15800
O1023       O  0.23021672  0.55008811  0.90049038    -0.70700
O1024       O  0.28213184  0.98584890  0.90537995    -0.70900
O1025       O  0.28840402  0.54438269  0.90086386    -0.70800
O1026       O  0.22423815  0.99097536  0.90453340    -0.70800
O1027       O  0.22326454  0.98875473  0.85446527    -0.70800
O1028       O  0.28722754  0.54228381  0.85077985    -0.70800
O1029       O  0.28118963  0.98369759  0.85528326    -0.70700
O1030       O  0.22900551  0.54790841  0.85041832    -0.70900
V1031       V  0.25616334  0.51785079  0.90182919     1.35200
V1032       V  0.25513009  0.51576848  0.85370112     1.35200
C1033       C  0.22072699  0.55982687  0.87469296     0.78500
C1034       C  0.29058453  0.97408700  0.88119888     0.78600
C1035       C  0.29910032  0.55176818  0.87520941     0.78400
C1036       C  0.21322033  0.98043578  0.88011000     0.78400
O1037       O  0.21860515  0.52256598  0.64881448    -0.70700
O1038       O  0.27442179  0.96234105  0.65913767    -0.70900
O1039       O  0.27673061  0.52114148  0.65017003    -0.70800
O1040       O  0.21652563  0.96356897  0.65715046    -0.70800
O1041       O  0.21632806  0.95836848  0.60738942    -0.70800
O1042       O  0.27668087  0.51543302  0.60048816    -0.70800
O1043       O  0.27416028  0.95662686  0.60944371    -0.70700
O1044       O  0.21854261  0.51731358  0.59906929    -0.70900
V1045       V  0.24656131  0.99234590  0.65284764     1.35200
V1046       V  0.24642515  0.98707602  0.60506199     1.35200
C1047       C  0.20916873  0.53017867  0.62227787     0.78500
C1048       C  0.28342858  0.94906825  0.63611918     0.78600
C1049       C  0.28682856  0.52801748  0.62409439     0.78400
C1050       C  0.20662751  0.95089542  0.63339740     0.78400
C1051       C  0.34307000  0.59755845  0.62743129     0.87500
C1052       C  0.37223924  0.59172150  0.64376121    -0.52700
C1053       C  0.38735724  0.61681148  0.65040209     0.10500
C1054       C  0.37202922  0.64543251  0.64014433     0.21400
C1055       C  0.32728808  0.61802623  0.64861194    -0.53400
C1056       C  0.34213166  0.64342122  0.65515984     0.10600
C1057       C  0.35002762  0.61658844  0.59871670    -0.52900
C1058       C  0.36530317  0.64170217  0.60552287     0.11100
H1059       H  0.38000559  0.56983589  0.64999539     0.15700
H1060       H  0.38454919  0.66583131  0.64534453     0.01400
H1061       H  0.30605277  0.61270706  0.65758395     0.16000
H1062       H  0.34296461  0.61113855  0.57543560     0.15800
O1063       O  0.40086345  0.78528796  0.97683196    -0.70700
O1064       O  0.40067015  0.72004562  0.53412589    -0.70900
O1065       O  0.40367909  0.72672630  0.97231486    -0.70800
O1066       O  0.39840771  0.77885172  0.53871999    -0.70800
O1067       O  0.35135897  0.77656101  0.53508195    -0.70800
O1068       O  0.35665395  0.72409824  0.96835637    -0.70800
O1069       O  0.35364827  0.71786969  0.53009975    -0.70700
O1070       O  0.35383684  0.78253756  0.97328820    -0.70900
V1071       V  0.40000279  0.75267677  0.50545824     1.35200
V1072       V  0.35480138  0.75031299  0.50181353     1.35200
C1073       C  0.37723878  0.79462399  0.96510231     0.78500
C1074       C  0.37696180  0.70802401  0.54182042     0.78600
C1075       C  0.38116744  0.71683304  0.95892601     0.78400
C1076       C  0.37409699  0.78655752  0.54813601     0.78400
C1077       C  0.34241536  0.90243516  0.87671584     0.87500
C1078       C  0.37099810  0.90833021  0.86035854    -0.52700
C1079       C  0.38538055  0.88328545  0.85401575     0.10500
C1080       C  0.36983508  0.85470640  0.86441860     0.21400
C1081       C  0.32512550  0.88168339  0.85580768    -0.53400
C1082       C  0.33927073  0.85650536  0.84887638     0.10600
C1083       C  0.35031200  0.88376402  0.90555029    -0.52900
C1084       C  0.36473566  0.85870165  0.89904870     0.11100
H1085       H  0.37895971  0.93022298  0.85406018     0.15700
H1086       H  0.38215939  0.83467378  0.85937262     0.01400
H1087       H  0.30321330  0.88661978  0.84785875     0.16000
H1088       H  0.34454758  0.88947743  0.92878259     0.15800
C1089       C  0.35083112  0.89367108  0.63396395     0.87500
C1090       C  0.37105187  0.88807785  0.66199168    -0.52700
C1091       C  0.39647066  0.87519441  0.65466164     0.10500
C1092       C  0.39920028  0.86905630  0.62002302     0.21400
C1093       C  0.36883205  0.91183618  0.61124927    -0.53400
C1094       C  0.39410291  0.89905259  0.60368642     0.10600
C1095       C  0.34642601  0.86378515  0.61885682    -0.52900
C1096       C  0.37180728  0.85097161  0.61139795     0.11100
H1097       H  0.36616796  0.89454595  0.68524082     0.15700
H1098       H  0.41981951  0.85856026  0.61391049     0.01400
H1099       H  0.36207113  0.93313369  0.60181176     0.16000
H1100       H  0.32526090  0.85452059  0.61286468     0.15800
O1101       O  0.02847669  0.89693659  0.73137108    -0.70700
O1102       O  0.46881682  0.90418132  0.78969631    -0.70900
O1103       O  0.02738453  0.90460078  0.79255551    -0.70800
O1104       O  0.47025572  0.89688892  0.72854442    -0.70800
O1105       O  0.46981444  0.84934021  0.73565107    -0.70800
O1106       O  0.02676187  0.85716471  0.80049707    -0.70800
O1107       O  0.46821488  0.85663022  0.79683932    -0.70700
O1108       O  0.02805088  0.84947702  0.73932745    -0.70900
V1109       V  0.99873029  0.89973350  0.76073946     1.35200
V1110       V  0.99822731  0.85408491  0.76798434     1.35200
C1111       C  0.03834845  0.87189930  0.72560441     0.78500
C1112       C  0.45804817  0.88147670  0.80263391     0.78600
C1113       C  0.03703584  0.88225101  0.80712673     0.78400
C1114       C  0.46037517  0.87191730  0.72121692     0.78400
C1115       C  0.11560874  0.64049717  0.83666172     0.87500
C1116       C  0.10886367  0.65655209  0.86622286    -0.52700
C1117       C  0.13305285  0.66530981  0.88241401     0.10500
C1118       C  0.16179370  0.65668189  0.86772178     0.21400
C1119       C  0.13533928  0.66176544  0.81860022    -0.53400
C1120       C  0.15971792  0.67020258  0.83479710     0.10600
C1121       C  0.13500655  0.61478905  0.84677583    -0.52900
C1122       C  0.15933885  0.62321733  0.86284405     0.11100
H1123       H  0.08704101  0.66162340  0.87303712     0.15700
H1124       H  0.18149951  0.66358828  0.88104966     0.01400
H1125       H  0.13095386  0.66863092  0.79479061     0.16000
H1126       H  0.13061747  0.59212671  0.84048580     0.15800
C1127       C  0.14460687  0.92300563  0.89172602     0.87500
C1128       C  0.12560121  0.91435206  0.86365040    -0.52700
C1129       C  0.10173727  0.89786498  0.87133102     0.10500
C1130       C  0.09929918  0.89146680  0.90617840     0.21400
C1131       C  0.12402027  0.93855523  0.91288622    -0.53400
C1132       C  0.09997192  0.92233135  0.92054490     0.10600
C1133       C  0.15210611  0.89394267  0.90866431    -0.52900
C1134       C  0.12833849  0.87739888  0.91620877     0.11100
H1135       H  0.12999487  0.92151170  0.84012859     0.15700
H1136       H  0.08033660  0.87745187  0.91222213     0.01400
H1137       H  0.12773917  0.96112601  0.91975423     0.16000
H1138       H  0.17412551  0.88720788  0.91440612     0.15800
C1139       C  0.10782214  0.85994738  0.67056546     0.87500
C1140       C  0.10247283  0.84305652  0.64070935    -0.52700
C1141       C  0.12711337  0.83837731  0.62491130     0.10500
C1142       C  0.15478543  0.85121101  0.64039295     0.21400
C1143       C  0.13064098  0.84215122  0.68907511    -0.53400
C1144       C  0.15537477  0.83752249  0.67328979     0.10600
C1145       C  0.12344869  0.88845569  0.66092999    -0.52900
C1146       C  0.14816521  0.88389269  0.64535680     0.11100
H1147       H  0.08126679  0.83501486  0.63310025     0.15700
H1148       H  0.17488451  0.84770200  0.62748003     0.01400
H1149       H  0.12746393  0.83387847  0.71247838     0.16000
H1150       H  0.11642827  0.91020143  0.66722583     0.15800
C1151       C  0.14094428  0.58568401  0.60805408     0.87500
C1152       C  0.12370843  0.59321713  0.63660641    -0.52700
C1153       C  0.09829615  0.60727341  0.62956422     0.10500
C1154       C  0.09255190  0.61254966  0.59470070     0.21400
C1155       C  0.11988495  0.56781102  0.58804463    -0.53400
C1156       C  0.09430936  0.58147953  0.58127273     0.10600
C1157       C  0.14525598  0.61491970  0.59043587    -0.52900
C1158       C  0.11996117  0.62912000  0.58352298     0.11100
H1159       H  0.13048336  0.58716554  0.66006502     0.15700
H1160       H  0.07185371  0.62392956  0.58908664     0.01400
H1161       H  0.12415410  0.54542042  0.58125094     0.16000
H1162       H  0.16636940  0.62372918  0.58422961     0.15800
O1163       O  0.10302751  0.77936747  0.53481582    -0.70700
O1164       O  0.10434673  0.72978291  0.96489829    -0.70900
O1165       O  0.10097024  0.72068729  0.52603707    -0.70800
O1166       O  0.10572513  0.78858051  0.97344787    -0.70800
O1167       O  0.15275681  0.78781132  0.97717188    -0.70800
O1168       O  0.14799073  0.71915707  0.52955615    -0.70800
O1169       O  0.15138517  0.72905955  0.96859291    -0.70700
O1170       O  0.15003841  0.77783082  0.53843466    -0.70900
V1171       V  0.10443264  0.75462242  0.49986473     1.35200
V1172       V  0.14962163  0.75351716  0.50336849     1.35200
C1173       C  0.12643743  0.78702246  0.54838770     0.78500
C1174       C  0.12821779  0.72069514  0.95526298     0.78600
C1175       C  0.12357332  0.70807693  0.53620829     0.78400
C1176       C  0.12990130  0.79992346  0.96664539     0.78400
C1177       C  0.46669557  0.97038092  0.52343188     0.87500
C1178       C  0.48781512  0.95401762  0.50362552    -0.52700
C1179       C  0.00582638  0.97197090  0.98704404     0.10500
C1180       C  0.00087793  0.50509469  0.99140576     0.21400
C1181       C  0.48587941  0.99098399  0.54317275    -0.53400
C1182       C  0.00394199  0.50906590  0.52651815     0.10600
C1183       C  0.45069901  0.99158396  0.50085594    -0.52900
C1184       C  0.46845554  0.50968595  0.98413435     0.11100
H1185       H  0.48917952  0.93015979  0.50371606     0.15700
H1186       H  0.01541709  0.51966107  0.97766789     0.01400
H1187       H  0.48525535  0.99113012  0.56819923     0.16000
H1188       H  0.42738576  0.99392086  0.49918355     0.15800
C1189       C  0.28731973  0.73073873  0.73005942     0.87500
C1190       C  0.26687846  0.71368509  0.75157063    -0.52700
C1191       C  0.24984281  0.73096214  0.76855285     0.10500
C1192       C  0.25494446  0.76410734  0.76278487     0.21400
C1193       C  0.26770411  0.75165925  0.71080746    -0.53400
C1194       C  0.25003517  0.76883883  0.72757932     0.10600
C1195       C  0.30477183  0.75115392  0.75152195    -0.52900
C1196       C  0.28784632  0.76870025  0.76859640     0.11100
H1197       H  0.26537609  0.68978253  0.75252440     0.15700
H1198       H  0.24146970  0.77758442  0.77760634     0.01400
H1199       H  0.26793034  0.75211662  0.68580529     0.16000
H1200       H  0.32818550  0.75252478  0.75299059     0.15800
C1201       C  0.12138995  0.68103010  0.55410962    -0.12200
C1202       C  0.11974754  0.65756629  0.56777328    -0.13800
C1203       C  0.06227221  0.53719179  0.58137489    -0.12300
C1204       C  0.06937553  0.56476436  0.56813233     0.09900
C1205       C  0.05385549  0.57484714  0.54180409    -0.12300
C1206       C  0.03228821  0.55691385  0.52820135    -0.12300
C1207       C  0.02564394  0.52901984  0.54124369     0.09900
C1208       C  0.04062555  0.51959767  0.56817573    -0.12300
H1209       H  0.07385675  0.52905636  0.60180590     0.13800
H1210       H  0.05907339  0.59607874  0.53124293     0.13800
H1211       H  0.02086673  0.56477185  0.50758224     0.13800
H1212       H  0.03627399  0.49809822  0.57856652     0.13800
C1213       C  0.12644743  0.80582513  0.57474525    -0.12200
C1214       C  0.12703954  0.82114580  0.59721672    -0.13800
C1215       C  0.18982224  0.82544483  0.71738338    -0.12300
C1216       C  0.18037003  0.82110706  0.68679056     0.09900
C1217       C  0.19463537  0.80065574  0.66916888    -0.12300
C1218       C  0.21729690  0.78403196  0.68219104    -0.12300
C1219       C  0.22685592  0.78795446  0.71306886     0.09900
C1220       C  0.21298886  0.80935057  0.73026463    -0.12300
H1221       H  0.17942796  0.84153370  0.73130292     0.13800
H1222       H  0.18757781  0.79674128  0.64561004     0.13800
H1223       H  0.22650178  0.76756486  0.66797379     0.13800
H1224       H  0.21976322  0.81391212  0.75363460     0.13800
C1225       C  0.13031693  0.84947958  0.93301361    -0.12200
C1226       C  0.13104057  0.82655275  0.94783456    -0.13800
C1227       C  0.08073121  0.95868662  0.95791015    -0.12300
C1228       C  0.07587059  0.93470966  0.93827622     0.09900
C1229       C  0.04746635  0.92355830  0.93460231    -0.12300
C1230       C  0.02466647  0.93588539  0.95019483    -0.12300
C1231       C  0.02962000  0.96004162  0.96922938     0.09900
C1232       C  0.05776392  0.97145028  0.97288047    -0.12300
H1233       H  0.10227975  0.96755989  0.96207189     0.13800
H1234       H  0.04248818  0.90573352  0.91921169     0.13800
H1235       H  0.00301627  0.92677218  0.94709197     0.13800
H1236       H  0.06212439  0.98966812  0.98805510     0.13800
C1237       C  0.13131767  0.68412833  0.90876163    -0.12200
C1238       C  0.12931449  0.70082372  0.92990035    -0.13800
C1239       C  0.21197956  0.67954237  0.82470784    -0.12300
C1240       C  0.18306711  0.68821297  0.82069335     0.09900
C1241       C  0.17658224  0.71276635  0.80149703    -0.12300
C1242       C  0.19864284  0.72788339  0.78590066    -0.12300
C1243       C  0.22733238  0.71819532  0.78872876     0.09900
C1244       C  0.23389067  0.69420402  0.80860902    -0.12300
H1245       H  0.21747777  0.66051054  0.83913496     0.13800
H1246       H  0.15440313  0.71989663  0.79816608     0.13800
H1247       H  0.19311284  0.74617875  0.77045124     0.13800
H1248       H  0.25588700  0.68639585  0.81108323     0.13800
C1249       C  0.06132750  0.86878211  0.70435181    -0.12200
C1250       C  0.08165915  0.86497525  0.68808521    -0.13800
C1251       C  0.07908134  0.89017114  0.84907596    -0.12200
C1252       C  0.05972036  0.88554630  0.83038071    -0.13800
C1253       C  0.41961534  0.87065870  0.67729349    -0.12200
C1254       C  0.43850174  0.86965679  0.69709491    -0.13800
C1255       C  0.40143034  0.92683639  0.55445988    -0.12300
C1256       C  0.41348403  0.91322821  0.58106089     0.09900
C1257       C  0.44336362  0.91559116  0.58696018    -0.12300
C1258       C  0.46052057  0.93334863  0.56768165    -0.12300
C1259       C  0.44800330  0.94926971  0.54246444     0.10100
C1260       C  0.41844621  0.94440487  0.53524837    -0.12300
H1261       H  0.37855061  0.92432006  0.54882640     0.13800
H1262       H  0.45313619  0.90493875  0.60717474     0.13800
H1263       H  0.48347237  0.93551519  0.57310592     0.13800
H1264       H  0.40800927  0.95384932  0.51488288     0.13800
C1265       C  0.43384062  0.88350099  0.82261161    -0.12200
C1266       C  0.41223122  0.88371836  0.83767935    -0.13800
C1267       C  0.33576131  0.80444053  0.82975801    -0.12300
C1268       C  0.32601259  0.83366399  0.82841682     0.09900
C1269       C  0.30320013  0.84090313  0.80737784    -0.12300
C1270       C  0.29028259  0.81954505  0.78873682    -0.12300
C1271       C  0.30038003  0.79066241  0.78990291     0.09900
C1272       C  0.32328496  0.78325204  0.81044847    -0.12300
H1273       H  0.35274952  0.79764396  0.84590171     0.13800
H1274       H  0.29546086  0.86316922  0.80467385     0.13800
H1275       H  0.27299938  0.82583997  0.77263249     0.13800
H1276       H  0.33129782  0.76095182  0.81179255     0.13800
C1277       C  0.37230906  0.82587156  0.59176407    -0.12200
C1278       C  0.37258977  0.80697867  0.57273870    -0.13800
C1279       C  0.37254222  0.83698349  0.92258718    -0.12200
C1280       C  0.37650050  0.81815683  0.94233002    -0.13800
C1281       C  0.37601540  0.68379912  0.56380029    -0.12200
C1282       C  0.37226738  0.66408720  0.58253904    -0.13800
C1283       C  0.29925477  0.67113598  0.67204735    -0.12300
C1284       C  0.32932052  0.66700812  0.67341194     0.09900
C1285       C  0.34652846  0.68514944  0.69244094    -0.12300
C1286       C  0.33372387  0.70637241  0.71054236    -0.12300
C1287       C  0.30338301  0.70977567  0.70984058     0.09900
C1288       C  0.28654487  0.69199106  0.69006009    -0.12300
H1289       H  0.28533093  0.65823823  0.65695807     0.13800
H1290       H  0.36979195  0.68240173  0.69403474     0.13800
H1291       H  0.34773289  0.71933292  0.72529463     0.13800
H1292       H  0.26318154  0.69407290  0.68880854     0.13800
C1293       C  0.16825421  0.90763568  0.63885057    -0.12200
C1294       C  0.18532477  0.92775022  0.63591352    -0.13800
C1295       C  0.30438859  0.92624655  0.64002407    -0.12200
C1296       C  0.32408805  0.90914354  0.64015904    -0.13800
C1297       C  0.18753976  0.55251585  0.61865697    -0.12200
C1298       C  0.16765573  0.56930858  0.61490507    -0.13800
C1299       C  0.32578382  0.57084688  0.62168209    -0.12200
C1300       C  0.30889543  0.55038729  0.62136563    -0.13800
C1301       C  0.32608132  0.92912176  0.88237369    -0.12200
C1302       C  0.31040712  0.95007149  0.88306144    -0.13800
C1303       C  0.16992081  0.94182258  0.88452578    -0.12200
C1304       C  0.18981242  0.95917550  0.88157448    -0.13800
C1305       C  0.20041404  0.58367410  0.87297779    -0.12200
C1306       C  0.18229779  0.60258970  0.87001079    -0.13800
C1307       C  0.38369401  0.69689916  0.93410153    -0.12200
C1308       C  0.38745020  0.67752807  0.91623079    -0.13800
C1309       C  0.34607817  0.58574620  0.87501822    -0.12200
C1310       C  0.32469169  0.57015545  0.87398959    -0.13800
C1311       C  0.45027052  0.56017293  0.91538463    -0.12300
C1312       C  0.42947057  0.57832133  0.92814409     0.09900
C1313       C  0.42253639  0.57418682  0.95928413    -0.12300
C1314       C  0.43585323  0.55234131  0.97735743    -0.12300
C1315       C  0.45653878  0.53409836  0.96478767     0.09900
C1316       C  0.46401685  0.53833214  0.93379209    -0.12300
H1317       H  0.45605883  0.56313565  0.89150321     0.13800
H1318       H  0.40634917  0.58765910  0.96965830     0.13800
H1319       H  0.42986632  0.54954153  0.50121462     0.13800
H1320       H  0.47988293  0.52428770  0.92368952     0.13800
C1321       C  0.41465335  0.61622919  0.66708700    -0.12200
C1322       C  0.43667801  0.61579238  0.68253416    -0.13800
C1323       C  0.06956436  0.62604321  0.80162189    -0.12200
C1324       C  0.08994156  0.63145883  0.81852282    -0.13800
C1325       C  0.06007775  0.61695112  0.67280157    -0.12200
C1326       C  0.07748011  0.61371923  0.65280712    -0.13800
C1327       C  0.44855082  0.62183271  0.81009483    -0.12200
C1328       C  0.43262805  0.62280818  0.83174093    -0.13800
O1329       O  0.53580416  0.09851574  0.27225622    -0.70700
O1330       O  0.97266144  0.09371581  0.21426532    -0.70900
O1331       O  0.53083264  0.09482615  0.21046254    -0.70800
O1332       O  0.97774673  0.09696523  0.27593843    -0.70800
O1333       O  0.97699285  0.14475504  0.27190629    -0.70800
O1334       O  0.53023360  0.14259986  0.20615234    -0.70800
O1335       O  0.97216774  0.14153725  0.21030701    -0.70700
O1336       O  0.53487484  0.14629808  0.26785036    -0.70900
V1337       V  0.50426743  0.09691595  0.24310565     1.35200
V1338       V  0.00359654  0.14284889  0.23910920     1.35200
C1339       C  0.54586263  0.12337833  0.27988996     0.78500
C1340       C  0.96156859  0.11695242  0.20283799     0.78600
C1341       C  0.53960905  0.11825597  0.19728398     0.78400
C1342       C  0.96839091  0.12117388  0.28502606     0.78400
C1343       C  0.89281848  0.14984602  0.40092191     0.87500
C1344       C  0.86503427  0.13289761  0.39263804    -0.52700
C1345       C  0.86980377  0.10622885  0.38019007     0.10500
C1346       C  0.90219553  0.09901564  0.37686875     0.21400
C1347       C  0.91021105  0.12893988  0.42212951    -0.53400
C1348       C  0.91515349  0.10217807  0.40979431     0.10600
C1349       C  0.90990291  0.15224073  0.37113081    -0.52900
C1350       C  0.91492869  0.12554213  0.35853994     0.11100
H1351       H  0.84349051  0.14071243  0.39746508     0.15700
H1352       H  0.90604544  0.07725416  0.36666707     0.01400
H1353       H  0.91768457  0.13473751  0.44518488     0.16000
H1354       H  0.91792041  0.17293665  0.36136964     0.15800
O1355       O  0.73021568  0.05008888  0.40049014    -0.70700
O1356       O  0.78213350  0.48585019  0.40538009    -0.70900
O1357       O  0.78840302  0.04438399  0.40086347    -0.70800
O1358       O  0.72423977  0.49097614  0.40453342    -0.70800
O1359       O  0.72326623  0.48875523  0.35446531    -0.70800
O1360       O  0.78722656  0.04228551  0.35077944    -0.70800
O1361       O  0.78119141  0.48369857  0.35528342    -0.70700
O1362       O  0.72900448  0.04790975  0.35041804    -0.70900
V1363       V  0.75616255  0.01785180  0.40182855     1.35200
V1364       V  0.75512928  0.01576996  0.35370045     1.35200
C1365       C  0.72072589  0.05982787  0.37469284     0.78500
C1366       C  0.79058635  0.47408822  0.38119913     0.78600
C1367       C  0.79909925  0.05176979  0.37520907     0.78400
C1368       C  0.71322204  0.48043635  0.38011007     0.78400
O1369       O  0.71860395  0.02256482  0.14881466    -0.70700
O1370       O  0.77442248  0.46234089  0.15913881    -0.70900
O1371       O  0.77672941  0.02114086  0.15017110    -0.70800
O1372       O  0.71652633  0.46356864  0.15715071    -0.70800
O1373       O  0.71632949  0.45836724  0.10738982    -0.70800
O1374       O  0.77668031  0.01543233  0.10048926    -0.70800
O1375       O  0.77416172  0.45662603  0.10944496    -0.70700
O1376       O  0.71854201  0.01731215  0.09906951    -0.70900
V1377       V  0.74656201  0.49234559  0.15284782     1.35200
V1378       V  0.74642647  0.48707499  0.10506230     1.35200
C1379       C  0.70916777  0.03017726  0.12227789     0.78500
C1380       C  0.78342962  0.44906779  0.13612069     0.78600
C1381       C  0.78682757  0.02801697  0.12409559     0.78400
C1382       C  0.70662860  0.45089459  0.13339778     0.78400
C1383       C  0.84306938  0.09755791  0.12743292     0.87500
C1384       C  0.87223892  0.09172055  0.14376194    -0.52700
C1385       C  0.88735743  0.11681018  0.15040264     0.10500
C1386       C  0.87202960  0.14543151  0.14014564     0.21400
C1387       C  0.82728833  0.11802579  0.14861423    -0.53400
C1388       C  0.84213246  0.14342048  0.15516199     0.10600
C1389       C  0.85002661  0.11658806  0.09871836    -0.52900
C1390       C  0.86530270  0.14170147  0.10552432     0.11100
H1391       H  0.88000530  0.06983430  0.14999583     0.15700
H1392       H  0.88454990  0.16583004  0.14534574     0.01400
H1393       H  0.80605304  0.11270694  0.15758673     0.16000
H1394       H  0.84296298  0.11113835  0.07543711     0.15800
O1395       O  0.90086532  0.28528840  0.47683318    -0.70700
O1396       O  0.90066980  0.22004482  0.03412729    -0.70900
O1397       O  0.90367950  0.22672672  0.47231509    -0.70800
O1398       O  0.89840714  0.27885103  0.03872089    -0.70800
O1399       O  0.85135840  0.27655994  0.03508329    -0.70800
O1400       O  0.85665432  0.22409975  0.46835653    -0.70800
O1401       O  0.85364791  0.21786857  0.03010127    -0.70700
O1402       O  0.85383868  0.28253907  0.47328899    -0.70900
V1403       V  0.90000216  0.25267574  0.00545939     1.35200
V1404       V  0.85480074  0.25031175  0.00181496     1.35200
C1405       C  0.87724093  0.29462513  0.46510349     0.78500
C1406       C  0.87696153  0.20802307  0.04182186     0.78600
C1407       C  0.88116763  0.21683419  0.45892603     0.78400
C1408       C  0.87409644  0.28655673  0.04813707     0.78400
C1409       C  0.84241786  0.40243667  0.37671737     0.87500
C1410       C  0.87100042  0.40833184  0.36035984    -0.52700
C1411       C  0.88538306  0.38328717  0.35401719     0.10500
C1412       C  0.86983796  0.35470803  0.36442042     0.21400
C1413       C  0.82512798  0.38168454  0.35580951    -0.53400
C1414       C  0.83927350  0.35650652  0.34887839     0.10600
C1415       C  0.85031478  0.38376585  0.40555203    -0.52900
C1416       C  0.86473865  0.35870352  0.39905051     0.11100
H1417       H  0.87896179  0.43022467  0.35406114     0.15700
H1418       H  0.88216245  0.33467566  0.35937466     0.01400
H1419       H  0.80321622  0.38662059  0.34786102     0.16000
H1420       H  0.84455038  0.38947926  0.42878402     0.15800
C1421       C  0.85083179  0.39367028  0.13396615     0.87500
C1422       C  0.87105252  0.38807625  0.16199365    -0.52700
C1423       C  0.89647114  0.37519264  0.15466328     0.10500
C1424       C  0.89920046  0.36905520  0.12002451     0.21400
C1425       C  0.86883287  0.41183561  0.11125185    -0.53400
C1426       C  0.89410352  0.39905182  0.10368856     0.10600
C1427       C  0.84642620  0.36378469  0.11885833    -0.52900
C1428       C  0.87180733  0.35097097  0.11139911     0.11100
H1429       H  0.86616879  0.39454412  0.18524318     0.15700
H1430       H  0.91981993  0.35855884  0.11391155     0.01400
H1431       H  0.86207219  0.43313340  0.10181478     0.16000
H1432       H  0.82526120  0.35452059  0.11286618     0.15800
O1433       O  0.52847807  0.39693516  0.23137069    -0.70700
O1434       O  0.96881851  0.40418176  0.28969595    -0.70900
O1435       O  0.52738612  0.40460103  0.29255485    -0.70800
O1436       O  0.97025705  0.39688767  0.22854433    -0.70800
O1437       O  0.96981557  0.34933912  0.23565242    -0.70800
O1438       O  0.52676341  0.35716513  0.30049772    -0.70800
O1439       O  0.96821646  0.35663083  0.29684043    -0.70700
O1440       O  0.52805211  0.34947577  0.23932838    -0.70900
V1441       V  0.49873180  0.39973300  0.26073907     1.35200
V1442       V  0.49822868  0.35408457  0.26798530     1.35200
C1443       C  0.53834977  0.37189767  0.22560472     0.78500
C1444       C  0.95804992  0.38147755  0.30263437     0.78600
C1445       C  0.53703741  0.38225158  0.30712666     0.78400
C1446       C  0.96037632  0.37191589  0.22121768     0.78400
C1447       C  0.61560850  0.14049947  0.33666198     0.87500
C1448       C  0.60886344  0.15655449  0.36622304    -0.52700
C1449       C  0.63305265  0.16531169  0.38241448     0.10500
C1450       C  0.66179343  0.15668318  0.36772254     0.21400
C1451       C  0.63533963  0.16176737  0.31860065    -0.53400
C1452       C  0.65971833  0.17020394  0.33479791     0.10600
C1453       C  0.63500571  0.11479102  0.34677629    -0.52900
C1454       C  0.65933803  0.12321870  0.36284475     0.11100
H1455       H  0.58704088  0.16162621  0.37303706     0.15700
H1456       H  0.68149948  0.16358921  0.38105083     0.01400
H1457       H  0.63095466  0.16863286  0.29479132     0.16000
H1458       H  0.63061623  0.09212841  0.34048599     0.15800
C1459       C  0.64460824  0.42300668  0.39172615     0.87500
C1460       C  0.62560282  0.41435303  0.36365040    -0.52700
C1461       C  0.60173857  0.39786640  0.37133093     0.10500
C1462       C  0.59929995  0.39146874  0.40617831     0.21400
C1463       C  0.62402158  0.43855698  0.41288579    -0.53400
C1464       C  0.59997289  0.42233349  0.42054434     0.10600
C1465       C  0.65210678  0.39394383  0.40866495    -0.52900
C1466       C  0.62833890  0.37740045  0.41620929     0.11100
H1467       H  0.62999689  0.42151227  0.34012856     0.15700
H1468       H  0.58033706  0.37745407  0.41222192     0.01400
H1469       H  0.62774068  0.46112750  0.41975336     0.16000
H1470       H  0.67412642  0.38720859  0.41440723     0.15800
C1471       C  0.60782406  0.35994540  0.17056661     0.87500
C1472       C  0.60247525  0.34305421  0.14071062    -0.52700
C1473       C  0.62711608  0.33837530  0.12491288     0.10500
C1474       C  0.65478778  0.35120957  0.14039474     0.21400
C1475       C  0.63064299  0.34214976  0.18907669    -0.53400
C1476       C  0.65537707  0.33752132  0.17329173     0.10600
C1477       C  0.62345024  0.38845395  0.16093105    -0.52900
C1478       C  0.64816702  0.38389119  0.14535813     0.11100
H1479       H  0.58126965  0.33501232  0.13310143     0.15700
H1480       H  0.67488714  0.34770083  0.12748197     0.01400
H1481       H  0.62746578  0.33387710  0.21247998     0.16000
H1482       H  0.61642944  0.41019942  0.16722644     0.15800
C1483       C  0.64094314  0.08568213  0.10805388     0.87500
C1484       C  0.62370760  0.09321581  0.13660621    -0.52700
C1485       C  0.59829540  0.10727217  0.12956409     0.10500
C1486       C  0.59255083  0.11254793  0.09470055     0.21400
C1487       C  0.61988356  0.06780892  0.08804490    -0.53400
C1488       C  0.59430799  0.08147755  0.08127305     0.10600
C1489       C  0.64525488  0.11491752  0.09043521    -0.52900
C1490       C  0.61996016  0.12911791  0.08352238     0.11100
H1491       H  0.63048284  0.08716458  0.16006511     0.15700
H1492       H  0.57185277  0.12392788  0.08908655     0.01400
H1493       H  0.62415251  0.04541852  0.08125153     0.16000
H1494       H  0.66636841  0.12372688  0.08422877     0.15800
O1495       O  0.60302941  0.27936626  0.03481736    -0.70700
O1496       O  0.60434610  0.22978404  0.46489904    -0.70900
O1497       O  0.60097067  0.22068623  0.02603796    -0.70800
O1498       O  0.60572421  0.28858172  0.47344815    -0.70800
O1499       O  0.65275586  0.28781293  0.47717272    -0.70800
O1500       O  0.64799113  0.21915501  0.02955672    -0.70800
O1501       O  0.65138456  0.22906121  0.46859368    -0.70700
O1502       O  0.65004030  0.27782874  0.03843545    -0.70900
V1503       V  0.60443358  0.25462148  0.99986596     1.35200
V1504       V  0.64962255  0.25351516  0.00336917     1.35200
C1505       C  0.62643965  0.28702074  0.04838896     0.78500
C1506       C  0.62821727  0.22069657  0.45526372     0.78600
C1507       C  0.62357354  0.20807530  0.03620885     0.78400
C1508       C  0.62990037  0.29992488  0.46664593     0.78400
C1509       C  0.96669604  0.47037916  0.02343287     0.87500
C1510       C  0.98781540  0.45401554  0.00362654    -0.52700
C1511       C  0.50582739  0.47197348  0.48704339     0.10500
C1512       C  0.50087731  0.00509691  0.49140504     0.21400
C1513       C  0.98588010  0.49098218  0.04317359    -0.53400
C1514       C  0.50394083  0.00906374  0.02651830     0.10600
C1515       C  0.95069959  0.49158220  0.00085684    -0.52900
C1516       C  0.96845488  0.00968792  0.48413357     0.11100
H1517       H  0.98917966  0.43015777  0.00371725     0.15700
H1518       H  0.51541631  0.01966340  0.47766732     0.01400
H1519       H  0.98525612  0.49112843  0.06819997     0.16000
H1520       H  0.92738633  0.49391929  0.99918446     0.15800
C1521       C  0.78732256  0.23073863  0.23006244     0.87500
C1522       C  0.76688098  0.21368507  0.25157338    -0.52700
C1523       C  0.74984540  0.23096219  0.26855561     0.10500
C1524       C  0.75494742  0.26410734  0.26278782     0.21400
C1525       C  0.76770730  0.25165952  0.21081047    -0.53400
C1526       C  0.75003826  0.26883908  0.22758229     0.10600
C1527       C  0.80477475  0.25115350  0.25152515    -0.52900
C1528       C  0.78784933  0.26869999  0.26859958     0.11100
H1529       H  0.76537828  0.18978260  0.25252688     0.15700
H1530       H  0.74147265  0.27758452  0.27760943     0.01400
H1531       H  0.76793378  0.25211699  0.18580845     0.16000
H1532       H  0.82818851  0.25252420  0.25299369     0.15800
C1533       C  0.62138966  0.18102827  0.05410971    -0.12200
C1534       C  0.61974676  0.15756430  0.06777295    -0.13800
C1535       C  0.56227088  0.03718973  0.08137508    -0.12300
C1536       C  0.56937411  0.06476234  0.06813271     0.09900
C1537       C  0.55385410  0.07484524  0.04180440    -0.12300
C1538       C  0.53228685  0.05691177  0.02820155    -0.12300
C1539       C  0.52564275  0.02901770  0.04124387     0.09900
C1540       C  0.54062437  0.01959549  0.06817588    -0.12300
H1541       H  0.57385561  0.02905414  0.10180641     0.13800
H1542       H  0.55907174  0.09607629  0.03124360     0.13800
H1543       H  0.52086556  0.06476967  0.00758280     0.13800
H1544       H  0.53627287  0.99809604  0.07856656     0.13800
C1545       C  0.62645032  0.30582325  0.07474669    -0.12200
C1546       C  0.62704262  0.32114382  0.09721826    -0.13800
C1547       C  0.68982355  0.32544331  0.21738624    -0.12300
C1548       C  0.68037247  0.32110631  0.18679293     0.09900
C1549       C  0.69463912  0.30065610  0.16917099    -0.12300
C1550       C  0.71730088  0.28403275  0.18219339    -0.12300
C1551       C  0.72685882  0.28795450  0.21307169     0.09900
C1552       C  0.71299035  0.30934946  0.23026779    -0.12300
H1553       H  0.67942824  0.34153139  0.23130608     0.13800
H1554       H  0.68758255  0.29674220  0.14561207     0.13800
H1555       H  0.72650669  0.26756661  0.16797579     0.13800
H1556       H  0.71976368  0.31391041  0.25363809     0.13800
C1557       C  0.63031665  0.34948112  0.43301422    -0.12200
C1558       C  0.63103976  0.32655422  0.44783512    -0.13800
C1559       C  0.58073205  0.45868986  0.45790845    -0.12300
C1560       C  0.57587149  0.43471238  0.43827521     0.09900
C1561       C  0.54746729  0.42356076  0.43460164    -0.12300
C1562       C  0.52466734  0.43588794  0.45019418    -0.12300
C1563       C  0.52962093  0.46004449  0.46922832     0.09900
C1564       C  0.55776476  0.47145366  0.47287883    -0.12300
H1565       H  0.60228046  0.46756342  0.46206986     0.13800
H1566       H  0.54248912  0.40573587  0.41921164     0.13800
H1567       H  0.50301774  0.42677463  0.44709178     0.13800
H1568       H  0.56212513  0.48967140  0.48805277     0.13800
C1569       C  0.63131749  0.18413008  0.40876217    -0.12200
C1570       C  0.62931419  0.20082530  0.42990102    -0.13800
C1571       C  0.71198028  0.17954232  0.32470906    -0.12300
C1572       C  0.68306810  0.18821379  0.32069451     0.09900
C1573       C  0.67658395  0.21276767  0.30149858    -0.12300
C1574       C  0.69864517  0.22788441  0.28590274    -0.12300
C1575       C  0.72733446  0.21819551  0.28873097     0.09900
C1576       C  0.73389186  0.19420365  0.30861075    -0.12300
H1577       H  0.71747787  0.16051001  0.33913598     0.13800
H1578       H  0.65440547  0.21989849  0.29816763     0.13800
H1579       H  0.69311581  0.24618003  0.27045378     0.13800
H1580       H  0.75588827  0.18639471  0.31108507     0.13800
C1581       C  0.56132890  0.36877992  0.20435232    -0.12200
C1582       C  0.58166077  0.36497300  0.18808601    -0.13800
C1583       C  0.57908282  0.39017245  0.34907575    -0.12200
C1584       C  0.55972190  0.38554738  0.33038053    -0.13800
C1585       C  0.91961598  0.37065667  0.17729486    -0.12200
C1586       C  0.93850263  0.36965488  0.19709601    -0.13800
C1587       C  0.90143049  0.42683606  0.05446224    -0.12300
C1588       C  0.91348446  0.41322740  0.08106284     0.09900
C1589       C  0.94336424  0.41558959  0.08696143    -0.12300
C1590       C  0.96052115  0.43334677  0.06768253    -0.12300
C1591       C  0.94800368  0.44926825  0.04246568     0.10100
C1592       C  0.91844636  0.44440419  0.03525050    -0.12300
H1593       H  0.87855066  0.42432031  0.04882934     0.13800
H1594       H  0.95313696  0.40493688  0.10717556     0.13800
H1595       H  0.98347305  0.43551279  0.07310624     0.13800
H1596       H  0.90800892  0.45384922  0.01488495     0.13800
C1597       C  0.93384269  0.38350252  0.32261236    -0.12200
C1598       C  0.91223353  0.38372015  0.33768045    -0.13800
C1599       C  0.83576525  0.30444169  0.32975952    -0.12300
C1600       C  0.82601538  0.33366471  0.32841922     0.09900
C1601       C  0.80320172  0.34090306  0.30738139    -0.12300
C1602       C  0.79028425  0.31954462  0.28874061    -0.12300
C1603       C  0.80038308  0.29066240  0.28990589     0.09900
C1604       C  0.82328912  0.28325289  0.31045032    -0.12300
H1605       H  0.85275476  0.29764549  0.34590270     0.13800
H1606       H  0.79546141  0.36316853  0.30467792     0.13800
H1607       H  0.77300067  0.32583880  0.27263769     0.13800
H1608       H  0.83130305  0.26095283  0.31179378     0.13800
C1609       C  0.87230874  0.32587106  0.09176496    -0.12200
C1610       C  0.87258929  0.30697810  0.07273964    -0.13800
C1611       C  0.87254518  0.33698533  0.42258901    -0.12200
C1612       C  0.87650326  0.31815837  0.44233160    -0.13800
C1613       C  0.87601528  0.18379822  0.06380173    -0.12200
C1614       C  0.87226712  0.16408637  0.08254046    -0.13800
C1615       C  0.79925651  0.17113654  0.17204937    -0.12300
C1616       C  0.82932206  0.16700754  0.17341443     0.09900
C1617       C  0.84653042  0.18514782  0.19244419    -0.12300
C1618       C  0.83372626  0.20637096  0.21054586    -0.12300
C1619       C  0.80338552  0.20977541  0.20984347     0.09900
C1620       C  0.78654717  0.19199174  0.19006232    -0.12300
H1621       H  0.78533250  0.15823954  0.15695957     0.13800
H1622       H  0.86979362  0.18239916  0.19403833     0.13800
H1623       H  0.84773542  0.21933062  0.22529885     0.13800
H1624       H  0.76318354  0.19407444  0.18881036     0.13800
C1625       C  0.66825563  0.40763450  0.13885155    -0.12200
C1626       C  0.68532596  0.42774923  0.13591411    -0.13800
C1627       C  0.80438955  0.42624609  0.14002627    -0.12200
C1628       C  0.82408889  0.40914295  0.14016152    -0.13800
C1629       C  0.68753866  0.05251418  0.11865667    -0.12200
C1630       C  0.66765454  0.06930674  0.11490480    -0.13800
C1631       C  0.82578271  0.07084663  0.12168379    -0.12200
C1632       C  0.80889425  0.05038705  0.12136711    -0.13800
C1633       C  0.82608354  0.42912322  0.38237484    -0.12200
C1634       C  0.81040914  0.45007285  0.38306202    -0.13800
C1635       C  0.66992250  0.44182319  0.38452597    -0.12200
C1636       C  0.68981421  0.45917600  0.38157464    -0.13800
C1637       C  0.70041287  0.08367503  0.37297801    -0.12200
C1638       C  0.68229669  0.10259072  0.37001127    -0.13800
C1639       C  0.88369374  0.19690072  0.43410111    -0.12200
C1640       C  0.88744952  0.17752982  0.41623004    -0.13800
C1641       C  0.84607695  0.08574803  0.37501782    -0.12200
C1642       C  0.82469048  0.07015725  0.37398934    -0.13800
C1643       C  0.95026938  0.06017449  0.41538357    -0.12300
C1644       C  0.92946956  0.07832304  0.42814326     0.09900
C1645       C  0.92253569  0.07418868  0.45928337    -0.12300
C1646       C  0.93585258  0.05234325  0.47735668    -0.12300
C1647       C  0.95653802  0.03410020  0.46478684     0.09900
C1648       C  0.96401570  0.03833388  0.43379124    -0.12300
H1649       H  0.95605733  0.06313702  0.39150267     0.13800
H1650       H  0.90634846  0.08766120  0.46965773     0.13800
H1651       H  0.92986529  0.04953872  0.00121453     0.13800
H1652       H  0.97988221  0.02428887  0.42368824     0.13800
C1653       C  0.91465384  0.11622764  0.16708687    -0.12200
C1654       C  0.93667860  0.11579126  0.18253380    -0.13800
C1655       C  0.56956398  0.12604603  0.30162208    -0.12200
C1656       C  0.58994126  0.13146162  0.31852290    -0.13800
C1657       C  0.56007783  0.11695142  0.17280180    -0.12200
C1658       C  0.57747983  0.11371889  0.15280715    -0.13800
C1659       C  0.94854994  0.12183414  0.31009415    -0.12200
C1660       C  0.93262699  0.12280970  0.33174009    -0.13800
O1661       O  0.53580354  0.09851407  0.77225590    -0.70700
O1662       O  0.97266014  0.09371537  0.71426562    -0.70900
O1663       O  0.53083135  0.09482538  0.71046215    -0.70800
O1664       O  0.97774625  0.09696382  0.77593878    -0.70800
O1665       O  0.97699258  0.14475368  0.77190740    -0.70800
O1666       O  0.53023248  0.14259913  0.70615272    -0.70800
O1667       O  0.97216674  0.14153685  0.71030810    -0.70700
O1668       O  0.53487442  0.14629645  0.76785075    -0.70900
V1669       V  0.50426648  0.09691483  0.74310563     1.35200
V1670       V  0.00359585  0.14284788  0.73910993     1.35200
C1671       C  0.54586219  0.12337650  0.77988993     0.78500
C1672       C  0.96156733  0.11695223  0.70283880     0.78600
C1673       C  0.53960778  0.11825534  0.69728390     0.78400
C1674       C  0.96839066  0.12117238  0.78502691     0.78400
C1675       C  0.89281848  0.14984399  0.90092291     0.87500
C1676       C  0.86503423  0.13289554  0.89263918    -0.52700
C1677       C  0.86980379  0.10622676  0.88019117     0.10500
C1678       C  0.90219554  0.09901369  0.87686979     0.21400
C1679       C  0.91021118  0.12893794  0.92213049    -0.53400
C1680       C  0.91515363  0.10217611  0.90979527     0.10600
C1681       C  0.90990281  0.15223874  0.87113177    -0.52900
C1682       C  0.91492862  0.12554012  0.85854090     0.11100
H1683       H  0.84349072  0.14071022  0.89746621     0.15700
H1684       H  0.90604552  0.07725194  0.86666796     0.01400
H1685       H  0.91768480  0.13473563  0.94518568     0.16000
H1686       H  0.91792027  0.17293461  0.86137060     0.15800
O1687       O  0.73021525  0.05008811  0.90049090    -0.70700
O1688       O  0.78213362  0.48584920  0.90538010    -0.70900
O1689       O  0.78840254  0.04438245  0.90086441    -0.70800
O1690       O  0.72423987  0.49097533  0.90453359    -0.70800
O1691       O  0.72326607  0.48875433  0.85446549    -0.70800
O1692       O  0.78722609  0.04228411  0.85078037    -0.70800
O1693       O  0.78119121  0.48369725  0.85528345    -0.70700
O1694       O  0.72900409  0.04790889  0.85041880    -0.70900
V1695       V  0.75616173  0.01785067  0.90182938     1.35200
V1696       V  0.75512854  0.01576887  0.85370127     1.35200
C1697       C  0.72072560  0.05982716  0.87469355     0.78500
C1698       C  0.79058625  0.47408702  0.88119917     0.78600
C1699       C  0.79909890  0.05176817  0.87521005     0.78400
C1700       C  0.71322192  0.48043560  0.88011033     0.78400
O1701       O  0.71860405  0.02256550  0.64881458    -0.70700
O1702       O  0.77442293  0.46234160  0.65913815    -0.70900
O1703       O  0.77672955  0.02114100  0.65017013    -0.70800
O1704       O  0.71652676  0.46356942  0.65715085    -0.70800
O1705       O  0.71632912  0.45836868  0.60738985    -0.70800
O1706       O  0.77667967  0.01543314  0.60048817    -0.70800
O1707       O  0.77416131  0.45662688  0.60944426    -0.70700
O1708       O  0.71854137  0.01731336  0.59906934    -0.70900
V1709       V  0.74656241  0.49234638  0.65284780     1.35200
V1710       V  0.74642627  0.48707612  0.60506221     1.35200
C1711       C  0.70916751  0.03017826  0.62227803     0.78500
C1712       C  0.78342967  0.44906855  0.63611980     0.78600
C1713       C  0.78682743  0.02801734  0.62409455     0.78400
C1714       C  0.70662864  0.45089571  0.63339787     0.78400
C1715       C  0.84306907  0.09755819  0.62743196     0.87500
C1716       C  0.87223839  0.09172100  0.64376157    -0.52700
C1717       C  0.88735654  0.11681082  0.65040256     0.10500
C1718       C  0.87202865  0.14543204  0.64014518     0.21400
C1719       C  0.82728742  0.11802588  0.64861298    -0.53400
C1720       C  0.84213121  0.14342074  0.65516097     0.10600
C1721       C  0.85002656  0.11658837  0.59871748    -0.52900
C1722       C  0.86530231  0.14170194  0.60552373     0.11100
H1723       H  0.88000470  0.06983515  0.64999557     0.15700
H1724       H  0.88454867  0.16583054  0.64534539     0.01400
H1725       H  0.80605229  0.11270674  0.65758510     0.16000
H1726       H  0.84296339  0.11113865  0.57543638     0.15800
O1727       O  0.90086413  0.28528730  0.97683269    -0.70700
O1728       O  0.90066992  0.22004524  0.53412696    -0.70900
O1729       O  0.90367913  0.22672561  0.97231541    -0.70800
O1730       O  0.89840807  0.27885137  0.53872130    -0.70800
O1731       O  0.85135931  0.27656109  0.53508342    -0.70800
O1732       O  0.85665396  0.22409804  0.96835694    -0.70800
O1733       O  0.85364801  0.21786975  0.53010087    -0.70700
O1734       O  0.85383751  0.28253736  0.97328877    -0.70900
V1735       V  0.90000281  0.25267648  0.50545944     1.35200
V1736       V  0.85480138  0.25031316  0.50181484     1.35200
C1737       C  0.87723957  0.29462356  0.96510296     0.78500
C1738       C  0.87696147  0.20802381  0.54182147     0.78600
C1739       C  0.88116737  0.21683263  0.95892652     0.78400
C1740       C  0.87409745  0.28655738  0.54813744     0.78400
C1741       C  0.84241716  0.40243521  0.87671674     0.87500
C1742       C  0.87100001  0.40833034  0.86035964    -0.52700
C1743       C  0.88538238  0.38328548  0.85401682     0.10500
C1744       C  0.86983678  0.35470645  0.86441944     0.21400
C1745       C  0.82512733  0.38168361  0.85580837    -0.53400
C1746       C  0.83927252  0.35650552  0.84887706     0.10600
C1747       C  0.85031355  0.38376392  0.90555117    -0.52900
C1748       C  0.86473719  0.35870152  0.89904951     0.11100
H1749       H  0.87896156  0.43022275  0.85406151     0.15700
H1750       H  0.88216113  0.33467374  0.85937343     0.01400
H1751       H  0.80321530  0.38662006  0.84785947     0.16000
H1752       H  0.84454904  0.38947719  0.92878335     0.15800
C1753       C  0.85083229  0.39367148  0.63396488     0.87500
C1754       C  0.87105318  0.38807843  0.66199250    -0.52700
C1755       C  0.89647193  0.37519494  0.65466244     0.10500
C1756       C  0.89920137  0.36905663  0.62002384     0.21400
C1757       C  0.86883309  0.41183648  0.61125000    -0.53400
C1758       C  0.89410394  0.39905285  0.60368710     0.10600
C1759       C  0.84642710  0.36378544  0.61885796    -0.52900
C1760       C  0.87180836  0.35097186  0.61139903     0.11100
H1761       H  0.86616937  0.39454669  0.68524172     0.15700
H1762       H  0.91982065  0.35856054  0.61391125     0.01400
H1763       H  0.86207219  0.43313389  0.60181253     0.16000
H1764       H  0.82526207  0.35452087  0.61286604     0.15800
O1765       O  0.52847800  0.39693714  0.73137169    -0.70700
O1766       O  0.96881837  0.40418162  0.78969722    -0.70900
O1767       O  0.52738604  0.40460106  0.79255617    -0.70800
O1768       O  0.97025702  0.39688950  0.72854528    -0.70800
O1769       O  0.96981574  0.34934076  0.73565170    -0.70800
O1770       O  0.52676344  0.35716495  0.80049745    -0.70800
O1771       O  0.96821646  0.35663049  0.79684001    -0.70700
O1772       O  0.52805216  0.34947753  0.73932778    -0.70900
V1773       V  0.49873173  0.39973393  0.76074019     1.35200
V1774       V  0.49822874  0.35408531  0.76798486     1.35200
C1775       C  0.53834968  0.37189987  0.72560481     0.78500
C1776       C  0.95804979  0.38147695  0.80263477     0.78600
C1777       C  0.53703740  0.38225122  0.80712723     0.78400
C1778       C  0.96037647  0.37191791  0.72121767     0.78400
C1779       C  0.61560799  0.14049789  0.83666187     0.87500
C1780       C  0.60886288  0.15655294  0.86622292    -0.52700
C1781       C  0.63305202  0.16531055  0.88241418     0.10500
C1782       C  0.66179290  0.15668241  0.86772218     0.21400
C1783       C  0.63533876  0.16176602  0.81860035    -0.53400
C1784       C  0.65971738  0.17020301  0.83479746     0.10600
C1785       C  0.63500558  0.11478970  0.84677620    -0.52900
C1786       C  0.65933783  0.12321787  0.86284455     0.11100
H1787       H  0.58704010  0.16162442  0.87303710     0.15700
H1788       H  0.68149861  0.16358866  0.88105013     0.01400
H1789       H  0.63095359  0.16863136  0.79479107     0.16000
H1790       H  0.63061640  0.09212730  0.84048621     0.15800
C1791       C  0.64460821  0.42300577  0.89172677     0.87500
C1792       C  0.62560272  0.41435213  0.86365102    -0.52700
C1793       C  0.60173871  0.39786511  0.87133159     0.10500
C1794       C  0.59930040  0.39146708  0.90617894     0.21400
C1795       C  0.62402146  0.43855548  0.91288672    -0.53400
C1796       C  0.59997303  0.42233169  0.92054529     0.10600
C1797       C  0.65210721  0.39394289  0.90866521    -0.52900
C1798       C  0.62833961  0.37739912  0.91620957     0.11100
H1799       H  0.62999651  0.42151163  0.84012941     0.15700
H1800       H  0.58033766  0.37745213  0.91222259     0.01400
H1801       H  0.62774035  0.46112638  0.91975465     0.16000
H1802       H  0.67412704  0.38720791  0.91440731     0.15800
C1803       C  0.60782325  0.35994773  0.67056596     0.87500
C1804       C  0.60247405  0.34305690  0.64070987    -0.52700
C1805       C  0.62711467  0.33837749  0.62491204     0.10500
C1806       C  0.65478667  0.35121107  0.64039395     0.21400
C1807       C  0.63064180  0.34215143  0.68907587    -0.53400
C1808       C  0.65537575  0.33752257  0.67329078     0.10600
C1809       C  0.62344997  0.38845603  0.66093065    -0.52900
C1810       C  0.64816661  0.38389279  0.64535765     0.11100
H1811       H  0.58126793  0.33501534  0.63310056     0.15700
H1812       H  0.67488599  0.34770194  0.62748106     0.01400
H1813       H  0.62746450  0.33387874  0.71247898     0.16000
H1814       H  0.61642973  0.41020139  0.66722622     0.15800
C1815       C  0.64094285  0.08568330  0.60805433     0.87500
C1816       C  0.62370688  0.09321641  0.63660653    -0.52700
C1817       C  0.59829475  0.10727285  0.62956431     0.10500
C1818       C  0.59255066  0.11254927  0.59470078     0.21400
C1819       C  0.61988354  0.06781042  0.58804466    -0.53400
C1820       C  0.59430803  0.08147917  0.58127271     0.10600
C1821       C  0.64525483  0.11491903  0.59043628    -0.52900
C1822       C  0.61996012  0.12911950  0.58352332     0.11100
H1823       H  0.63048178  0.08716470  0.66006542     0.15700
H1824       H  0.57185266  0.12392925  0.58908668     0.01400
H1825       H  0.62415252  0.04542017  0.58125104     0.16000
H1826       H  0.66636822  0.12372838  0.58423028     0.15800
O1827       O  0.60302800  0.27936762  0.53481693    -0.70700
O1828       O  0.60434652  0.22978345  0.96489881    -0.70900
O1829       O  0.60097008  0.22068743  0.52603834    -0.70800
O1830       O  0.60572544  0.28858095  0.97344864    -0.70800
O1831       O  0.65275710  0.28781131  0.97717259    -0.70800
O1832       O  0.64799056  0.21915666  0.52955699    -0.70800
O1833       O  0.65138496  0.22905962  0.96859342    -0.70700
O1834       O  0.65003889  0.27783041  0.53843551    -0.70900
V1835       V  0.60443264  0.25462246  0.49986589     1.35200
V1836       V  0.64962163  0.25351677  0.50336934     1.35200
C1837       C  0.62643808  0.28702236  0.54838867     0.78500
C1838       C  0.62821750  0.22069552  0.95526343     0.78600
C1839       C  0.62357308  0.20807678  0.53620931     0.78400
C1840       C  0.62990170  0.29992367  0.96664613     0.78400
C1841       C  0.96669659  0.47038133  0.52343260     0.87500
C1842       C  0.98781588  0.45401781  0.50362611    -0.52700
C1843       C  0.50582697  0.47197114  0.98704383     0.10500
C1844       C  0.50087753  0.00509454  0.99140575     0.21400
C1845       C  0.98588071  0.49098420  0.54317353    -0.53400
C1846       C  0.50394066  0.00906579  0.52651769     0.10600
C1847       C  0.95070004  0.49158451  0.50085681    -0.52900
C1848       C  0.96845520  0.00968590  0.98413410     0.11100
H1849       H  0.98918012  0.43016008  0.50371665     0.15700
H1850       H  0.51541679  0.01966077  0.97766792     0.01400
H1851       H  0.98525684  0.49113033  0.56819924     0.16000
H1852       H  0.92738685  0.49392166  0.49918456     0.15800
C1853       C  0.78732030  0.23073846  0.73006116     0.87500
C1854       C  0.76687896  0.21368501  0.75157246    -0.52700
C1855       C  0.74984343  0.23096221  0.76855462     0.10500
C1856       C  0.75494530  0.26410735  0.76278654     0.21400
C1857       C  0.76770478  0.25165907  0.71080930    -0.53400
C1858       C  0.75003592  0.26883881  0.72758098     0.10600
C1859       C  0.80477244  0.25115359  0.75152356    -0.52900
C1860       C  0.78784722  0.26870010  0.76859799     0.11100
H1861       H  0.76537640  0.18978249  0.75252624     0.15700
H1862       H  0.74147060  0.27758460  0.77760814     0.01400
H1863       H  0.76793099  0.25211632  0.68580654     0.16000
H1864       H  0.82818674  0.25252429  0.75299214     0.15800
C1865       C  0.62138951  0.18102986  0.55411049    -0.12200
C1866       C  0.61974678  0.15756595  0.56777390    -0.13800
C1867       C  0.56227061  0.03719161  0.58137470    -0.12300
C1868       C  0.56937414  0.06476410  0.56813224     0.09900
C1869       C  0.55385428  0.07484700  0.54180385    -0.12300
C1870       C  0.53228695  0.05691370  0.52820104    -0.12300
C1871       C  0.52564255  0.02901973  0.54124336     0.09900
C1872       C  0.54062401  0.01959749  0.56817550    -0.12300
H1873       H  0.57385521  0.02905601  0.60180617     0.13800
H1874       H  0.55907218  0.09607818  0.53124290     0.13800
H1875       H  0.52086565  0.06477173  0.50758197     0.13800
H1876       H  0.53627237  0.99809817  0.57856621     0.13800
C1877       C  0.62644848  0.30582513  0.57474614    -0.12200
C1878       C  0.62704086  0.32114591  0.59721754    -0.13800
C1879       C  0.68982242  0.32544411  0.71738491    -0.12300
C1880       C  0.68037081  0.32110704  0.68679186     0.09900
C1881       C  0.69463675  0.30065620  0.66917004    -0.12300
C1882       C  0.71729820  0.28403249  0.68219238    -0.12300
C1883       C  0.72685664  0.28795440  0.71307047     0.09900
C1884       C  0.71298889  0.30934996  0.73026641    -0.12300
H1885       H  0.67942737  0.34153308  0.73130502     0.13800
H1886       H  0.68757975  0.29674221  0.64561109     0.13800
H1887       H  0.72650367  0.26756568  0.66797475     0.13800
H1888       H  0.71976273  0.31391110  0.75363670     0.13800
C1889       C  0.63031786  0.34947980  0.93301438    -0.12200
C1890       C  0.63104124  0.32655295  0.94783530    -0.13800
C1891       C  0.58073199  0.45868728  0.95791002    -0.12300
C1892       C  0.57587152  0.43471010  0.93827629     0.09900
C1893       C  0.54746738  0.42355870  0.93460243    -0.12300
C1894       C  0.52466729  0.43588566  0.95019469    -0.12300
C1895       C  0.52962069  0.46004203  0.96922912     0.09900
C1896       C  0.55776456  0.47145098  0.97288029    -0.12300
H1897       H  0.60228029  0.46756065  0.96207176     0.13800
H1898       H  0.54248921  0.40573330  0.91921153     0.13800
H1899       H  0.50301744  0.42677242  0.94709189     0.13800
H1900       H  0.56212479  0.48966837  0.98805440     0.13800
C1901       C  0.63131691  0.18412902  0.90876182    -0.12200
C1902       C  0.62931395  0.20082429  0.92990066    -0.13800
C1903       C  0.71197918  0.17954245  0.82470876    -0.12300
C1904       C  0.68306683  0.18821321  0.82069391     0.09900
C1905       C  0.67658223  0.21276674  0.80149762    -0.12300
C1906       C  0.69864323  0.22788379  0.78590170    -0.12300
C1907       C  0.72733272  0.21819554  0.78873026     0.09900
C1908       C  0.73389058  0.19420408  0.80861043    -0.12300
H1909       H  0.71747714  0.16051041  0.83913594     0.13800
H1910       H  0.65440369  0.21989702  0.79816646     0.13800
H1911       H  0.69311357  0.24617905  0.77045245     0.13800
H1912       H  0.75588697  0.18639569  0.81108492     0.13800
C1913       C  0.56132857  0.36878273  0.70435207    -0.12200
C1914       C  0.58166019  0.36497578  0.68808549    -0.13800
C1915       C  0.57908288  0.39017124  0.84907645    -0.12200
C1916       C  0.55972192  0.38554641  0.83038119    -0.13800
C1917       C  0.91961667  0.37065933  0.67729422    -0.12200
C1918       C  0.93850306  0.36965748  0.69709564    -0.13800
C1919       C  0.90143131  0.42683702  0.55446077    -0.12300
C1920       C  0.91348505  0.41322853  0.58106159     0.09900
C1921       C  0.94336465  0.41559134  0.58696067    -0.12300
C1922       C  0.96052160  0.43334885  0.56768227    -0.12300
C1923       C  0.94800429  0.44927020  0.54246526     0.10100
C1924       C  0.91844716  0.44440558  0.53524940    -0.12300
H1925       H  0.87855153  0.42432084  0.54882740     0.13800
H1926       H  0.95313742  0.40493855  0.60717544     0.13800
H1927       H  0.98347353  0.43551528  0.57310643     0.13800
H1928       H  0.90801006  0.45385038  0.51488387     0.13800
C1929       C  0.93384239  0.38350116  0.82261265    -0.12200
C1930       C  0.91223305  0.38371844  0.83768046    -0.13800
C1931       C  0.83576294  0.30444061  0.82975893    -0.12300
C1932       C  0.82601421  0.33366409  0.82841765     0.09900
C1933       C  0.80320149  0.34090323  0.80737892    -0.12300
C1934       C  0.79028372  0.31954498  0.78873820    -0.12300
C1935       C  0.80038112  0.29066234  0.78990432     0.09900
C1936       C  0.82328628  0.28325206  0.81044962    -0.12300
H1937       H  0.85275105  0.29764419  0.84590221     0.13800
H1938       H  0.79546233  0.36316891  0.80467494     0.13800
H1939       H  0.77300030  0.32583986  0.77263408     0.13800
H1940       H  0.83129915  0.26095176  0.81179374     0.13800
C1941       C  0.87231000  0.32587163  0.59176536    -0.12200
C1942       C  0.87259052  0.30697859  0.57274013    -0.13800
C1943       C  0.87254353  0.33698321  0.92258792    -0.12200
C1944       C  0.87650158  0.31815644  0.94233071    -0.13800
C1945       C  0.87601488  0.18379890  0.56380127    -0.12200
C1946       C  0.87226667  0.16408700  0.58253999    -0.13800
C1947       C  0.79925461  0.17113552  0.67204917    -0.12300
C1948       C  0.82932035  0.16700758  0.67341339     0.09900
C1949       C  0.84652850  0.18514882  0.69244227    -0.12300
C1950       C  0.83372415  0.20637180  0.71054379    -0.12300
C1951       C  0.80338334  0.20977523  0.70984234     0.09900
C1952       C  0.78654497  0.19199065  0.69006204    -0.12300
H1953       H  0.78533058  0.15823786  0.65696002     0.13800
H1954       H  0.86979212  0.18240102  0.69403580     0.13800
H1955       H  0.84773354  0.21933255  0.72529618     0.13800
H1956       H  0.76318163  0.19407260  0.68881069     0.13800
C1957       C  0.66825561  0.40763575  0.63885132    -0.12200
C1958       C  0.68532602  0.42775040  0.63591413    -0.13800
C1959       C  0.80438972  0.42624690  0.64002492    -0.12200
C1960       C  0.82408924  0.40914396  0.64016002    -0.13800
C1961       C  0.68753836  0.05251524  0.61865731    -0.12200
C1962       C  0.66765420  0.06930780  0.61490543    -0.13800
C1963       C  0.82578272  0.07084677  0.62168264    -0.12200
C1964       C  0.80889428  0.05038719  0.62136603    -0.13800
C1965       C  0.82608315  0.42912185  0.88237453    -0.12200
C1966       C  0.81040892  0.45007157  0.88306200    -0.13800
C1967       C  0.66992223  0.44182261  0.88452655    -0.12200
C1968       C  0.68981393  0.45917542  0.88157509    -0.13800
C1969       C  0.70041279  0.08367449  0.87297856    -0.12200
C1970       C  0.68229663  0.10259017  0.87001149    -0.13800
C1971       C  0.88369366  0.19689885  0.93410191    -0.12200
C1972       C  0.88744951  0.17752781  0.91623103    -0.13800
C1973       C  0.84607695  0.08574596  0.87501893    -0.12200
C1974       C  0.82469037  0.07015531  0.87399041    -0.13800
C1975       C  0.95026924  0.06017226  0.91538413    -0.12300
C1976       C  0.92946996  0.07832117  0.92814413     0.09900
C1977       C  0.92253670  0.07418733  0.95928454    -0.12300
C1978       C  0.93585386  0.05234190  0.97735771    -0.12300
C1979       C  0.95653864  0.03409840  0.96478750     0.09900
C1980       C  0.96401574  0.03833154  0.93379160    -0.12300
H1981       H  0.95605671  0.06313446  0.89150290     0.13800
H1982       H  0.90635025  0.08765974  0.96965893     0.13800
H1983       H  0.92986352  0.04953972  0.50121330     0.13800
H1984       H  0.97988135  0.02428646  0.92368855     0.13800
C1985       C  0.91465262  0.11622835  0.66708749    -0.12200
C1986       C  0.93667721  0.11579160  0.68253471    -0.13800
C1987       C  0.56956361  0.12604390  0.80162203    -0.12200
C1988       C  0.58994084  0.13145960  0.81852288    -0.13800
C1989       C  0.56007656  0.11695111  0.67280168    -0.12200
C1990       C  0.57747878  0.11371897  0.65280717    -0.13800
C1991       C  0.94854990  0.12183237  0.81009516    -0.12200
C1992       C  0.93262697  0.12280776  0.83174113    -0.13800
O1993       O  0.53580481  0.59851525  0.27225584    -0.70700
O1994       O  0.97266216  0.59371592  0.21426481    -0.70900
O1995       O  0.53083336  0.59482608  0.21046215    -0.70800
O1996       O  0.97774747  0.59696490  0.27593794    -0.70800
O1997       O  0.97699391  0.64475476  0.27190632    -0.70800
O1998       O  0.53023425  0.64259980  0.20615206    -0.70800
O1999       O  0.97216848  0.64153738  0.21030698    -0.70700
O2000       O  0.53487582  0.64629760  0.26785006    -0.70900
V2001       V  0.50426810  0.59691574  0.24310520     1.35200
V2002       V  0.00359743  0.64284873  0.23910907     1.35200
C2003       C  0.54586346  0.62337774  0.27988960     0.78500
C2004       C  0.96156928  0.61695263  0.20283775     0.78600
C2005       C  0.53960975  0.61825593  0.19728366     0.78400
C2006       C  0.96839184  0.62117351  0.28502585     0.78400
C2007       C  0.89281944  0.64984570  0.40092142     0.87500
C2008       C  0.86503527  0.63289711  0.39263788    -0.52700
C2009       C  0.86980481  0.60622821  0.38019019     0.10500
C2010       C  0.90219658  0.59901518  0.37686886     0.21400
C2011       C  0.91021219  0.62893989  0.42212923    -0.53400
C2012       C  0.91515463  0.60217790  0.40979433     0.10600
C2013       C  0.90990376  0.65224026  0.37113024    -0.52900
C2014       C  0.91492959  0.62554147  0.35853967     0.11100
H2015       H  0.84349149  0.64071188  0.39746493     0.15700
H2016       H  0.90604659  0.57725329  0.36666725     0.01400
H2017       H  0.91768578  0.63473782  0.44518426     0.16000
H2018       H  0.91792105  0.67293579  0.36136897     0.15800
O2019       O  0.73021645  0.55008894  0.40049060    -0.70700
O2020       O  0.78213311  0.98585041  0.40537911    -0.70900
O2021       O  0.78840378  0.54438367  0.40086417    -0.70800
O2022       O  0.72423936  0.99097608  0.40453269    -0.70800
O2023       O  0.72326549  0.98875558  0.35446455    -0.70800
O2024       O  0.78722730  0.54228516  0.35078014    -0.70800
O2025       O  0.78119068  0.98369887  0.35528244    -0.70700
O2026       O  0.72900522  0.54790941  0.35041854    -0.70900
V2027       V  0.75616313  0.51785169  0.40182928     1.35200
V2028       V  0.75513000  0.51576962  0.35370119     1.35200
C2029       C  0.72072669  0.55982776  0.37469323     0.78500
C2030       C  0.79058579  0.97408846  0.38119806     0.78600
C2031       C  0.79910008  0.55176937  0.37520976     0.78400
C2032       C  0.71322146  0.98043651  0.38010931     0.78400
O2033       O  0.71860470  0.52256503  0.14881385    -0.70700
O2034       O  0.77442200  0.96234094  0.15913949    -0.70900
O2035       O  0.77673016  0.52114080  0.15017028    -0.70800
O2036       O  0.71652588  0.96356837  0.15715130    -0.70800
O2037       O  0.71632903  0.95836730  0.10739036    -0.70800
O2038       O  0.77668089  0.51543228  0.10048844    -0.70800
O2039       O  0.77416121  0.95662608  0.10944565    -0.70700
O2040       O  0.71854254  0.51731210  0.09906873    -0.70900
V2041       V  0.74656140  0.99234551  0.15284855     1.35200
V2042       V  0.74642595  0.98707504  0.10506301     1.35200
C2043       C  0.70916841  0.53017733  0.12227709     0.78500
C2044       C  0.78342911  0.94906782  0.13612138     0.78600
C2045       C  0.78682829  0.52801689  0.12409475     0.78400
C2046       C  0.70662823  0.95089443  0.13339827     0.78400
C2047       C  0.84307033  0.59755778  0.12743201     0.87500
C2048       C  0.87223983  0.59172053  0.14376123    -0.52700
C2049       C  0.88735824  0.61681029  0.15040192     0.10500
C2050       C  0.87203034  0.64543146  0.14014466     0.21400
C2051       C  0.82728913  0.61802570  0.14861313    -0.53400
C2052       C  0.84213315  0.64342046  0.15516088     0.10600
C2053       C  0.85002762  0.61658784  0.09871735    -0.52900
C2054       C  0.86530362  0.64170136  0.10552335     0.11100
H2055       H  0.88000617  0.56983448  0.14999527     0.15700
H2056       H  0.88455067  0.66583025  0.14534478     0.01400
H2057       H  0.80605376  0.61270681  0.15758559     0.16000
H2058       H  0.84296414  0.61113814  0.07543638     0.15800
O2059       O  0.90086502  0.78528862  0.47683188    -0.70700
O2060       O  0.90066982  0.72004558  0.03412675    -0.70900
O2061       O  0.90367984  0.72672696  0.47231403    -0.70800
O2062       O  0.89840657  0.77885179  0.03872018    -0.70800
O2063       O  0.85135784  0.77656013  0.03508269    -0.70800
O2064       O  0.85665468  0.72409943  0.46835542    -0.70800
O2065       O  0.85364796  0.71786877  0.03010067    -0.70700
O2066       O  0.85383841  0.78253876  0.47328758    -0.70900
V2067       V  0.90000183  0.75267645  0.00545876     1.35200
V2068       V  0.85480044  0.75031198  0.00181436     1.35200
C2069       C  0.87724055  0.79462509  0.46510214     0.78500
C2070       C  0.87696168  0.70802351  0.04182126     0.78600
C2071       C  0.88116811  0.71683412  0.45892500     0.78400
C2072       C  0.87409579  0.78655722  0.04813640     0.78400
C2073       C  0.84241733  0.90243681  0.37671616     0.87500
C2074       C  0.87099989  0.90833217  0.36035855    -0.52700
C2075       C  0.88538259  0.88328744  0.35401596     0.10500
C2076       C  0.86983760  0.85470830  0.36441931     0.21400
C2077       C  0.82512755  0.88168456  0.35580838    -0.53400
C2078       C  0.83927316  0.85650657  0.34887734     0.10600
C2079       C  0.85031437  0.88376607  0.40555083    -0.52900
C2080       C  0.86473831  0.85870376  0.39904938     0.11100
H2081       H  0.87896097  0.93022452  0.35405988     0.15700
H2082       H  0.88216227  0.83467580  0.35937352     0.01400
H2083       H  0.80321567  0.88662049  0.34785981     0.16000
H2084       H  0.84454986  0.88947948  0.42878295     0.15800
C2085       C  0.85083102  0.89367017  0.13396642     0.87500
C2086       C  0.87105204  0.88807606  0.16199371    -0.52700
C2087       C  0.89647064  0.87519265  0.15466293     0.10500
C2088       C  0.89919972  0.86905542  0.12002408     0.21400
C2089       C  0.86883181  0.91183580  0.11125202    -0.53400
C2090       C  0.89410247  0.89905214  0.10368845     0.10600
C2091       C  0.84642550  0.86378471  0.11885844    -0.52900
C2092       C  0.87180652  0.85097114  0.11139882     0.11100
H2093       H  0.86616854  0.89454379  0.18524321     0.15700
H2094       H  0.91981894  0.85855930  0.11391092     0.01400
H2095       H  0.86207109  0.93313329  0.10181540     0.16000
H2096       H  0.82526009  0.85452036  0.11286632     0.15800
O2097       O  0.52847826  0.89693513  0.23137001    -0.70700
O2098       O  0.96881829  0.90418212  0.28969482    -0.70900
O2099       O  0.52738600  0.90460119  0.29255408    -0.70800
O2100       O  0.97025723  0.89688789  0.22854326    -0.70800
O2101       O  0.96981569  0.84933934  0.23565136    -0.70800
O2102       O  0.52676290  0.85716533  0.30049728    -0.70800
O2103       O  0.96821600  0.85663118  0.29683927    -0.70700
O2104       O  0.52805219  0.84947577  0.23932802    -0.70900
V2105       V  0.49873182  0.89973320  0.26073819     1.35200
V2106       V  0.49822850  0.85408477  0.26798455     1.35200
C2107       C  0.53834999  0.87189759  0.22560434     0.78500
C2108       C  0.95804949  0.88147793  0.30263312     0.78600
C2109       C  0.53703702  0.88225176  0.30712613     0.78400
C2110       C  0.96037648  0.87191612  0.22121660     0.78400
C2111       C  0.61560938  0.64049898  0.33666149     0.87500
C2112       C  0.60886432  0.65655427  0.36622240    -0.52700
C2113       C  0.63305356  0.66531169  0.38241369     0.10500
C2114       C  0.66179431  0.65668311  0.36772178     0.21400
C2115       C  0.63534039  0.66176678  0.31859982    -0.53400
C2116       C  0.65971912  0.67020356  0.33479703     0.10600
C2117       C  0.63500663  0.61479060  0.34677601    -0.52900
C2118       C  0.65933896  0.62321857  0.36284437     0.11100
H2119       H  0.58704182  0.66162596  0.37303643     0.15700
H2120       H  0.68150036  0.66358931  0.38104997     0.01400
H2121       H  0.63095540  0.66863194  0.29479091     0.16000
H2122       H  0.63061726  0.59212823  0.34048608     0.15800
C2123       C  0.64460759  0.92300708  0.39172570     0.87500
C2124       C  0.62560212  0.91435345  0.36364995    -0.52700
C2125       C  0.60173791  0.89786677  0.37133056     0.10500
C2126       C  0.59929936  0.89146908  0.40617793     0.21400
C2127       C  0.62402095  0.93855724  0.41288540    -0.53400
C2128       C  0.59997229  0.92233383  0.42054399     0.10600
C2129       C  0.65210624  0.89394421  0.40866444    -0.52900
C2130       C  0.62833835  0.87740083  0.41620880     0.11100
H2131       H  0.62999612  0.92151265  0.34012827     0.15700
H2132       H  0.58033649  0.87745438  0.41222158     0.01400
H2133       H  0.62774009  0.96112823  0.41975317     0.16000
H2134       H  0.67412568  0.88720905  0.41440655     0.15800
C2135       C  0.60782434  0.85994481  0.17056641     0.87500
C2136       C  0.60247542  0.84305373  0.14071047    -0.52700
C2137       C  0.62711599  0.83837484  0.12491243     0.10500
C2138       C  0.65478780  0.85120913  0.14039408     0.21400
C2139       C  0.63064344  0.84214914  0.18907632    -0.53400
C2140       C  0.65537741  0.83752083  0.17329101     0.10600
C2141       C  0.62345040  0.88845338  0.16093081    -0.52900
C2142       C  0.64816704  0.88389070  0.14535765     0.11100
H2143       H  0.58126920  0.83501167  0.13310120     0.15700
H2144       H  0.67488712  0.84770044  0.12748105     0.01400
H2145       H  0.62746651  0.83387661  0.21247927     0.16000
H2146       H  0.61642969  0.91019883  0.16722645     0.15800
C2147       C  0.64094372  0.58568218  0.10805332     0.87500
C2148       C  0.62370826  0.59321566  0.13660581    -0.52700
C2149       C  0.59829606  0.60727215  0.12956379     0.10500
C2150       C  0.59255146  0.61254810  0.09470032     0.21400
C2151       C  0.61988409  0.56780914  0.08804424    -0.53400
C2152       C  0.59430853  0.58147786  0.08127256     0.10600
C2153       C  0.64525546  0.61491767  0.09043490    -0.52900
C2154       C  0.61996074  0.62911813  0.08352222     0.11100
H2155       H  0.63048347  0.58716433  0.16006445     0.15700
H2156       H  0.57185327  0.62392818  0.08908640     0.01400
H2157       H  0.62415297  0.54541875  0.08125073     0.16000
H2158       H  0.66636903  0.62372706  0.08422843     0.15800
O2159       O  0.60302914  0.77936603  0.03481664    -0.70700
O2160       O  0.60434654  0.72978404  0.46489783    -0.70900
O2161       O  0.60097081  0.72068600  0.02603750    -0.70800
O2162       O  0.60572400  0.78858170  0.47344703    -0.70800
O2163       O  0.65275565  0.78781334  0.47717190    -0.70800
O2164       O  0.64799129  0.71915512  0.02955619    -0.70800
O2165       O  0.65138499  0.72906162  0.46859282    -0.70700
O2166       O  0.65004004  0.77782882  0.03843476    -0.70900
V2167       V  0.60443347  0.75462114  0.99986534     1.35200
V2168       V  0.64962245  0.75351519  0.00336854     1.35200
C2169       C  0.62643932  0.78702065  0.04838827     0.78500
C2170       C  0.62821785  0.72069679  0.45526269     0.78600
C2171       C  0.62357378  0.70807529  0.03620844     0.78400
C2172       C  0.62990010  0.79992509  0.46664499     0.78400
C2173       C  0.96669524  0.97037934  0.02343279     0.87500
C2174       C  0.98781464  0.95401549  0.00362671    -0.52700
C2175       C  0.50582656  0.97197342  0.48704293     0.10500
C2176       C  0.50087842  0.50509701  0.49140552     0.21400
C2177       C  0.98587929  0.99098233  0.04317354    -0.53400
C2178       C  0.50394137  0.50906378  0.02651834     0.10600
C2179       C  0.95069903  0.99158235  0.00085654    -0.52900
C2180       C  0.96845597  0.50968826  0.48413427     0.11100
H2181       H  0.98917875  0.93015768  0.00371751     0.15700
H2182       H  0.51541740  0.51966336  0.47766774     0.01400
H2183       H  0.98525518  0.99112868  0.06819992     0.16000
H2184       H  0.92738598  0.99391972  0.99918399     0.15800
C2185       C  0.78732315  0.73073844  0.23006136     0.87500
C2186       C  0.76688147  0.71368476  0.25157221    -0.52700
C2187       C  0.74984584  0.73096200  0.26855436     0.10500
C2188       C  0.75494789  0.76410711  0.26278664     0.21400
C2189       C  0.76770797  0.75165935  0.21080936    -0.53400
C2190       C  0.75003892  0.76883893  0.22758110     0.10600
C2191       C  0.80477516  0.75115327  0.25152420    -0.52900
C2192       C  0.78784976  0.76869974  0.26859857     0.11100
H2193       H  0.76537883  0.68978278  0.25252573     0.15700
H2194       H  0.74147300  0.77758430  0.27760820     0.01400
H2195       H  0.76793451  0.75211687  0.18580721     0.16000
H2196       H  0.82818944  0.75252394  0.25299293     0.15800
C2197       C  0.62139010  0.68102841  0.05410948    -0.12200
C2198       C  0.61974730  0.65756449  0.06777282    -0.13800
C2199       C  0.56227125  0.53719023  0.08137503    -0.12300
C2200       C  0.56937455  0.56476271  0.06813242     0.09900
C2201       C  0.55385452  0.57484542  0.04180407    -0.12300
C2202       C  0.53228731  0.55691191  0.02820144    -0.12300
C2203       C  0.52564317  0.52901792  0.04124382     0.09900
C2204       C  0.54062474  0.51959585  0.06817599    -0.12300
H2205       H  0.57385598  0.52905477  0.10180642     0.13800
H2206       H  0.55907228  0.59607663  0.03124299     0.13800
H2207       H  0.52086574  0.56476985  0.00758217     0.13800
H2208       H  0.53627333  0.49809673  0.07856668     0.13800
C2209       C  0.62644990  0.80582305  0.07474607    -0.12200
C2210       C  0.62704232  0.82114352  0.09721772    -0.13800
C2211       C  0.68982454  0.82544354  0.21738513    -0.12300
C2212       C  0.68037306  0.82110605  0.18679196     0.09900
C2213       C  0.69463953  0.80065570  0.16917010    -0.12300
C2214       C  0.71730140  0.78403244  0.18219231    -0.12300
C2215       C  0.72685962  0.78795446  0.21307050     0.09900
C2216       C  0.71299147  0.80934969  0.23026638    -0.12300
H2217       H  0.67942967  0.84153141  0.23130455     0.13800
H2218       H  0.68758259  0.79674152  0.14561101     0.13800
H2219       H  0.72650703  0.76756615  0.16797485     0.13800
H2220       H  0.71976524  0.81391096  0.25363702     0.13800
C2221       C  0.63031616  0.84948145  0.43301357    -0.12200
C2222       C  0.63103937  0.82655448  0.44783431    -0.13800
C2223       C  0.58073135  0.95869001  0.45790826    -0.12300
C2224       C  0.57587085  0.93471264  0.43827480     0.09900
C2225       C  0.54746667  0.92356121  0.43460110    -0.12300
C2226       C  0.52466671  0.93588822  0.45019350    -0.12300
C2227       C  0.52962019  0.96004459  0.46922790     0.09900
C2228       C  0.55776401  0.97145363  0.47287860    -0.12300
H2229       H  0.60227984  0.96756350  0.46206978     0.13800
H2230       H  0.54248845  0.90573594  0.41921051     0.13800
H2231       H  0.50301679  0.92677488  0.44709088     0.13800
H2232       H  0.56212440  0.98967158  0.48805299     0.13800
C2233       C  0.63131844  0.68413023  0.40876124    -0.12200
C2234       C  0.62931507  0.70082553  0.42990000    -0.13800
C2235       C  0.71198107  0.67954257  0.32470847    -0.12300
C2236       C  0.68306873  0.68821346  0.32069339     0.09900
C2237       C  0.67658443  0.71276679  0.30149680    -0.12300
C2238       C  0.69864547  0.72788362  0.28590089    -0.12300
C2239       C  0.72733494  0.71819529  0.28872972     0.09900
C2240       C  0.73389247  0.69420398  0.30861009    -0.12300
H2241       H  0.71747884  0.66051064  0.33913592     0.13800
H2242       H  0.65440555  0.71989727  0.29816537     0.13800
H2243       H  0.69311599  0.74617885  0.27045142     0.13800
H2244       H  0.75588947  0.68639534  0.31108486     0.13800
C2245       C  0.56132929  0.86877961  0.20435220    -0.12200
C2246       C  0.58166117  0.86497245  0.18808600    -0.13800
C2247       C  0.57908222  0.89017272  0.34907538    -0.12200
C2248       C  0.55972139  0.88554757  0.33038010    -0.13800
C2249       C  0.91961583  0.87065687  0.17729413    -0.12200
C2250       C  0.93850271  0.86965514  0.19709502    -0.13800
C2251       C  0.90142920  0.92683726  0.05446263    -0.12300
C2252       C  0.91348333  0.91322805  0.08106285     0.09900
C2253       C  0.94336316  0.91558975  0.08696114    -0.12300
C2254       C  0.96052013  0.93334686  0.06768226    -0.12300
C2255       C  0.94800270  0.94926867  0.04246569     0.10100
C2256       C  0.91844513  0.94440536  0.03525070    -0.12300
H2257       H  0.87854959  0.92432197  0.04882997     0.13800
H2258       H  0.95313597  0.90493658  0.10717507     0.13800
H2259       H  0.98347221  0.93551248  0.07310576     0.13800
H2260       H  0.90800793  0.95385031  0.01488622     0.13800
C2261       C  0.93384213  0.88350294  0.32261094    -0.12200
C2262       C  0.91223296  0.88372053  0.33767904    -0.13800
C2263       C  0.83576512  0.80444161  0.32975896    -0.12300
C2264       C  0.82601517  0.83366468  0.32841823     0.09900
C2265       C  0.80320177  0.84090299  0.30738010    -0.12300
C2266       C  0.79028454  0.81954445  0.28873928    -0.12300
C2267       C  0.80038332  0.79066223  0.28990486     0.09900
C2268       C  0.82328908  0.78325276  0.31044964    -0.12300
H2269       H  0.85275393  0.79764567  0.34590194     0.13800
H2270       H  0.79546154  0.86316837  0.30467644     0.13800
H2271       H  0.77300106  0.82583862  0.27263599     0.13800
H2272       H  0.83130296  0.76095268  0.31179337     0.13800
C2273       C  0.87230789  0.82587141  0.09176442    -0.12200
C2274       C  0.87258846  0.80697856  0.07273897    -0.13800
C2275       C  0.87254468  0.83698548  0.42258785    -0.12200
C2276       C  0.87650271  0.81815841  0.44233034    -0.13800
C2277       C  0.87601569  0.68379848  0.06380096    -0.12200
C2278       C  0.87226778  0.66408641  0.08253953    -0.13800
C2279       C  0.79925710  0.67113627  0.17204842    -0.12300
C2280       C  0.82932271  0.66700750  0.17341327     0.09900
C2281       C  0.84653091  0.68514804  0.19244278    -0.12300
C2282       C  0.83372688  0.70637112  0.21054448    -0.12300
C2283       C  0.80338609  0.70977526  0.20984239     0.09900
C2284       C  0.78654776  0.69199141  0.19006142    -0.12300
H2285       H  0.78533310  0.65823916  0.15695880     0.13800
H2286       H  0.86979483  0.68239952  0.19403675     0.13800
H2287       H  0.84773602  0.71933105  0.22529723     0.13800
H2288       H  0.76318402  0.69407396  0.18880962     0.13800
C2289       C  0.66825563  0.90763404  0.13885139    -0.12200
C2290       C  0.68532579  0.92774892  0.13591436    -0.13800
C2291       C  0.80438892  0.92624601  0.14002699    -0.12200
C2292       C  0.82408817  0.90914275  0.14016215    -0.13800
C2293       C  0.68753928  0.55251422  0.11865585    -0.12200
C2294       C  0.66765512  0.56930674  0.11490405    -0.13800
C2295       C  0.82578367  0.57084641  0.12168292    -0.12200
C2296       C  0.80889513  0.55038688  0.12136626    -0.13800
C2297       C  0.82608294  0.92912338  0.38237356    -0.12200
C2298       C  0.81040858  0.95007305  0.38306078    -0.13800
C2299       C  0.66992181  0.94182355  0.38452540    -0.12200
C2300       C  0.68981357  0.95917626  0.38157391    -0.13800
C2301       C  0.70041374  0.58367498  0.37297818    -0.12200
C2302       C  0.68229760  0.60259068  0.37001120    -0.13800
C2303       C  0.88369446  0.69690058  0.43410020    -0.12200
C2304       C  0.88745039  0.67752963  0.41622927    -0.13800
C2305       C  0.84607803  0.58574730  0.37501828    -0.12200
C2306       C  0.82469147  0.57015660  0.37398999    -0.13800
C2307       C  0.95026980  0.56017368  0.41538367    -0.12300
C2308       C  0.92947082  0.57832311  0.42814354     0.09900
C2309       C  0.92253785  0.57418970  0.45928405    -0.12300
C2310       C  0.93585474  0.55234438  0.47735740    -0.12300
C2311       C  0.95653926  0.53410045  0.46478740     0.09900
C2312       C  0.96401603  0.53833319  0.43379144    -0.12300
H2313       H  0.95605709  0.56313545  0.39150235     0.13800
H2314       H  0.90635124  0.58766284  0.46965860     0.13800
H2315       H  0.92986395  0.54953766  0.00121408     0.13800
H2316       H  0.97988204  0.52428725  0.42368813     0.13800
C2317       C  0.91465453  0.61622793  0.16708647    -0.12200
C2318       C  0.93667924  0.61579162  0.18253355    -0.13800
C2319       C  0.56956484  0.62604529  0.30162173    -0.12200
C2320       C  0.58994213  0.63146091  0.31852252    -0.13800
C2321       C  0.56007857  0.61695144  0.17280154    -0.12200
C2322       C  0.57748058  0.61371888  0.15280692    -0.13800
C2323       C  0.94855089  0.62183362  0.31009396    -0.12200
C2324       C  0.93262791  0.62280900  0.33173988    -0.13800
O2325       O  0.53580411  0.59851378  0.77225553    -0.70700
O2326       O  0.97266087  0.59371579  0.71426499    -0.70900
O2327       O  0.53083213  0.59482539  0.71046174    -0.70800
O2328       O  0.97774683  0.59696400  0.77593821    -0.70800
O2329       O  0.97699358  0.64475389  0.77190704    -0.70800
O2330       O  0.53023355  0.64259916  0.70615246    -0.70800
O2331       O  0.97216783  0.64153730  0.71030768    -0.70700
O2332       O  0.53487544  0.64629619  0.76785053    -0.70900
V2333       V  0.50426714  0.59691492  0.74310512     1.35200
V2334       V  0.00359690  0.64284798  0.73910962     1.35200
C2335       C  0.54586295  0.62337610  0.77988969     0.78500
C2336       C  0.96156822  0.61695279  0.70283825     0.78600
C2337       C  0.53960878  0.61825535  0.69728363     0.78400
C2338       C  0.96839148  0.62117262  0.78502647     0.78400
C2339       C  0.89281935  0.64984424  0.90092274     0.87500
C2340       C  0.86503518  0.63289577  0.89263871    -0.52700
C2341       C  0.86980490  0.60622702  0.88019068     0.10500
C2342       C  0.90219670  0.59901397  0.87686954     0.21400
C2343       C  0.91021193  0.62893816  0.92213049    -0.53400
C2344       C  0.91515451  0.60217637  0.90979516     0.10600
C2345       C  0.90990394  0.65223916  0.87113171    -0.52900
C2346       C  0.91492983  0.62554050  0.85854084     0.11100
H2347       H  0.84349166  0.64071038  0.89746554     0.15700
H2348       H  0.90604676  0.57725244  0.86666780     0.01400
H2349       H  0.91768516  0.63473566  0.94518550     0.16000
H2350       H  0.91792119  0.67293467  0.86137079     0.15800
O2351       O  0.73021667  0.55008809  0.90049039    -0.70700
O2352       O  0.78213189  0.98584896  0.90537995    -0.70900
O2353       O  0.78840397  0.54438268  0.90086389    -0.70800
O2354       O  0.72423821  0.99097531  0.90453342    -0.70800
O2355       O  0.72326451  0.98875478  0.85446528    -0.70800
O2356       O  0.78722754  0.54228378  0.85077989    -0.70800
O2357       O  0.78118959  0.98369757  0.85528326    -0.70700
O2358       O  0.72900550  0.54790843  0.85041833    -0.70900
V2359       V  0.75616329  0.51785078  0.90182921     1.35200
V2360       V  0.75513006  0.51576848  0.85370113     1.35200
C2361       C  0.72072697  0.55982688  0.87469297     0.78500
C2362       C  0.79058454  0.97408702  0.88119887     0.78600
C2363       C  0.79910029  0.55176817  0.87520945     0.78400
C2364       C  0.71322035  0.98043578  0.88011001     0.78400
O2365       O  0.71860512  0.52256595  0.64881447    -0.70700
O2366       O  0.77442179  0.96234103  0.65913767    -0.70900
O2367       O  0.77673060  0.52114150  0.65017003    -0.70800
O2368       O  0.71652563  0.96356898  0.65715043    -0.70800
O2369       O  0.71632810  0.95836846  0.60738939    -0.70800
O2370       O  0.77668086  0.51543306  0.60048816    -0.70800
O2371       O  0.77416033  0.95662688  0.60944370    -0.70700
O2372       O  0.71854259  0.51731358  0.59906928    -0.70900
V2373       V  0.74656133  0.99234589  0.65284762     1.35200
V2374       V  0.74642518  0.98707602  0.60506197     1.35200
C2375       C  0.70916872  0.53017867  0.62227786     0.78500
C2376       C  0.78342861  0.94906825  0.63611917     0.78600
C2377       C  0.78682855  0.52801751  0.62409439     0.78400
C2378       C  0.70662753  0.95089542  0.63339736     0.78400
C2379       C  0.84307004  0.59755844  0.62743130     0.87500
C2380       C  0.87223929  0.59172151  0.64376121    -0.52700
C2381       C  0.88735727  0.61681149  0.65040210     0.10500
C2382       C  0.87202925  0.64543254  0.64014435     0.21400
C2383       C  0.82728813  0.61802622  0.64861193    -0.53400
C2384       C  0.84213166  0.64342120  0.65515984     0.10600
C2385       C  0.85002766  0.61658842  0.59871667    -0.52900
C2386       C  0.86530321  0.64170216  0.60552289     0.11100
H2387       H  0.88000565  0.56983590  0.64999537     0.15700
H2388       H  0.88454914  0.66583122  0.64534451     0.01400
H2389       H  0.80605268  0.61270699  0.65758399     0.16000
H2390       H  0.84296472  0.61113855  0.57543573     0.15800
O2391       O  0.90086345  0.78528795  0.97683197    -0.70700
O2392       O  0.90067023  0.72004562  0.53412590    -0.70900
O2393       O  0.90367908  0.72672629  0.97231486    -0.70800
O2394       O  0.89840776  0.77885174  0.53871999    -0.70800
O2395       O  0.85135902  0.77656096  0.53508201    -0.70800
O2396       O  0.85665393  0.72409825  0.96835638    -0.70800
O2397       O  0.85364835  0.71786966  0.53009978    -0.70700
O2398       O  0.85383683  0.78253758  0.97328818    -0.70900
V2399       V  0.90000283  0.75267678  0.50545825     1.35200
V2400       V  0.85480141  0.75031296  0.50181357     1.35200
C2401       C  0.87723879  0.79462399  0.96510230     0.78500
C2402       C  0.87696190  0.70802399  0.54182044     0.78600
C2403       C  0.88116742  0.71683304  0.95892602     0.78400
C2404       C  0.87409704  0.78655751  0.54813604     0.78400
C2405       C  0.84241533  0.90243516  0.87671585     0.87500
C2406       C  0.87099805  0.90833017  0.86035855    -0.52700
C2407       C  0.88538049  0.88328545  0.85401572     0.10500
C2408       C  0.86983505  0.85470636  0.86441858     0.21400
C2409       C  0.82512546  0.88168339  0.85580770    -0.53400
C2410       C  0.83927069  0.85650536  0.84887639     0.10600
C2411       C  0.85031198  0.88376401  0.90555029    -0.52900
C2412       C  0.86473563  0.85870164  0.89904869     0.11100
H2413       H  0.87895971  0.93022312  0.85406013     0.15700
H2414       H  0.88215930  0.83467388  0.85937263     0.01400
H2415       H  0.80321325  0.88661980  0.84785877     0.16000
H2416       H  0.84454757  0.88947743  0.92878262     0.15800
C2417       C  0.85083115  0.89367108  0.63396398     0.87500
C2418       C  0.87105193  0.88807787  0.66199166    -0.52700
C2419       C  0.89647070  0.87519443  0.65466164     0.10500
C2420       C  0.89920027  0.86905632  0.62002302     0.21400
C2421       C  0.86883205  0.91183615  0.61124928    -0.53400
C2422       C  0.89410291  0.89905258  0.60368641     0.10600
C2423       C  0.84642608  0.86378515  0.61885687    -0.52900
C2424       C  0.87180731  0.85097160  0.61139798     0.11100
H2425       H  0.86616800  0.89454601  0.68524096     0.15700
H2426       H  0.91981962  0.85856021  0.61391045     0.01400
H2427       H  0.86207112  0.93313373  0.60181173     0.16000
H2428       H  0.82526081  0.85452051  0.61286471     0.15800
O2429       O  0.52847669  0.89693659  0.73137106    -0.70700
O2430       O  0.96881675  0.90418132  0.78969627    -0.70900
O2431       O  0.52738457  0.90460077  0.79255550    -0.70800
O2432       O  0.97025571  0.89688892  0.72854441    -0.70800
O2433       O  0.96981442  0.84934021  0.73565108    -0.70800
O2434       O  0.52676188  0.85716471  0.80049707    -0.70800
O2435       O  0.96821486  0.85663022  0.79683932    -0.70700
O2436       O  0.52805092  0.84947702  0.73932746    -0.70900
V2437       V  0.49873032  0.89973350  0.76073946     1.35200
V2438       V  0.49822733  0.85408491  0.76798434     1.35200
C2439       C  0.53834847  0.87189930  0.72560440     0.78500
C2440       C  0.95804811  0.88147669  0.80263387     0.78600
C2441       C  0.53703587  0.88225100  0.80712674     0.78400
C2442       C  0.96037518  0.87191730  0.72121691     0.78400
C2443       C  0.61560876  0.64049714  0.83666172     0.87500
C2444       C  0.60886370  0.65655204  0.86622284    -0.52700
C2445       C  0.63305284  0.66530981  0.88241400     0.10500
C2446       C  0.66179365  0.65668188  0.86772175     0.21400
C2447       C  0.63533928  0.66176545  0.81860012    -0.53400
C2448       C  0.65971795  0.67020257  0.83479712     0.10600
C2449       C  0.63500658  0.61478913  0.84677585    -0.52900
C2450       C  0.65933886  0.62321733  0.86284407     0.11100
H2451       H  0.58704087  0.66162339  0.87303715     0.15700
H2452       H  0.68149968  0.66358835  0.88104980     0.01400
H2453       H  0.63095395  0.66863078  0.79479102     0.16000
H2454       H  0.63061744  0.59212634  0.84048569     0.15800
C2455       C  0.64460691  0.92300563  0.89172603     0.87500
C2456       C  0.62560124  0.91435208  0.86365040    -0.52700
C2457       C  0.60173731  0.89786499  0.87133103     0.10500
C2458       C  0.59929922  0.89146682  0.90617841     0.21400
C2459       C  0.62402032  0.93855532  0.91288625    -0.53400
C2460       C  0.59997195  0.92233135  0.92054490     0.10600
C2461       C  0.65210605  0.89394271  0.90866429    -0.52900
C2462       C  0.62833853  0.87739888  0.91620878     0.11100
H2463       H  0.62999490  0.92151173  0.84012862     0.15700
H2464       H  0.58033663  0.87745187  0.91222213     0.01400
H2465       H  0.62773917  0.96112574  0.91975413     0.16000
H2466       H  0.67412591  0.88720777  0.91440624     0.15800
C2467       C  0.60782212  0.85994736  0.67056543     0.87500
C2468       C  0.60247286  0.84305652  0.64070933    -0.52700
C2469       C  0.62711336  0.83837732  0.62491127     0.10500
C2470       C  0.65478546  0.85121102  0.64039292     0.21400
C2471       C  0.63064098  0.84215121  0.68907507    -0.53400
C2472       C  0.65537477  0.83752251  0.67328978     0.10600
C2473       C  0.62344868  0.88845566  0.66092997    -0.52900
C2474       C  0.64816518  0.88389272  0.64535679     0.11100
H2475       H  0.58126666  0.83501480  0.63310017     0.15700
H2476       H  0.67488442  0.84770206  0.62748006     0.01400
H2477       H  0.62746391  0.83387844  0.71247841     0.16000
H2478       H  0.61642817  0.91020156  0.66722587     0.15800
C2479       C  0.64094431  0.58568401  0.60805408     0.87500
C2480       C  0.62370844  0.59321715  0.63660638    -0.52700
C2481       C  0.59829618  0.60727340  0.62956424     0.10500
C2482       C  0.59255190  0.61254968  0.59470072     0.21400
C2483       C  0.61988495  0.56781106  0.58804464    -0.53400
C2484       C  0.59430937  0.58147953  0.58127275     0.10600
C2485       C  0.64525599  0.61491970  0.59043586    -0.52900
C2486       C  0.61996119  0.62911999  0.58352299     0.11100
H2487       H  0.63048344  0.58716552  0.66006516     0.15700
H2488       H  0.57185382  0.62392952  0.58908669     0.01400
H2489       H  0.62415412  0.54542030  0.58125090     0.16000
H2490       H  0.66636947  0.62372919  0.58422957     0.15800
O2491       O  0.60302747  0.77936747  0.53481577    -0.70700
O2492       O  0.60434664  0.72978293  0.96489827    -0.70900
O2493       O  0.60097023  0.72068730  0.52603710    -0.70800
O2494       O  0.60572506  0.78858053  0.97344788    -0.70800
O2495       O  0.65275673  0.78781131  0.97717189    -0.70800
O2496       O  0.64799072  0.71915705  0.52955612    -0.70800
O2497       O  0.65138508  0.72905957  0.96859289    -0.70700
O2498       O  0.65003837  0.77783081  0.53843465    -0.70900
V2499       V  0.60443261  0.75462240  0.49986471     1.35200
V2500       V  0.64962160  0.75351716  0.50336847     1.35200
C2501       C  0.62643739  0.78702248  0.54838766     0.78500
C2502       C  0.62821770  0.72069516  0.95526296     0.78600
C2503       C  0.62357331  0.70807693  0.53620829     0.78400
C2504       C  0.62990123  0.79992347  0.96664539     0.78400
C2505       C  0.96669559  0.97038092  0.52343187     0.87500
C2506       C  0.98781517  0.95401762  0.50362552    -0.52700
C2507       C  0.50582637  0.97197091  0.98704400     0.10500
C2508       C  0.50087794  0.50509469  0.99140576     0.21400
C2509       C  0.98587942  0.99098399  0.54317274    -0.53400
C2510       C  0.50394200  0.50906588  0.52651815     0.10600
C2511       C  0.95069901  0.99158395  0.50085593    -0.52900
C2512       C  0.96845553  0.50968595  0.98413435     0.11100
H2513       H  0.98917958  0.93015980  0.50371607     0.15700
H2514       H  0.51541708  0.51966108  0.97766791     0.01400
H2515       H  0.98525537  0.99113009  0.56819925     0.16000
H2516       H  0.92738584  0.99392083  0.49918354     0.15800
C2517       C  0.78731974  0.73073873  0.73005941     0.87500
C2518       C  0.76687848  0.71368508  0.75157063    -0.52700
C2519       C  0.74984283  0.73096213  0.76855285     0.10500
C2520       C  0.75494444  0.76410733  0.76278485     0.21400
C2521       C  0.76770410  0.75165924  0.71080744    -0.53400
C2522       C  0.75003516  0.76883882  0.72757931     0.10600
C2523       C  0.80477171  0.75115393  0.75152192    -0.52900
C2524       C  0.78784632  0.76870025  0.76859638     0.11100
H2525       H  0.76537613  0.68978255  0.75252441     0.15700
H2526       H  0.74146968  0.77758439  0.77760633     0.01400
H2527       H  0.76793034  0.75211660  0.68580531     0.16000
H2528       H  0.82818594  0.75252481  0.75299059     0.15800
C2529       C  0.62138995  0.68103010  0.55410963    -0.12200
C2530       C  0.61974754  0.65756629  0.56777329    -0.13800
C2531       C  0.56227221  0.53719180  0.58137487    -0.12300
C2532       C  0.56937552  0.56476437  0.56813234     0.09900
C2533       C  0.55385550  0.57484719  0.54180406    -0.12300
C2534       C  0.53228825  0.55691383  0.52820139    -0.12300
C2535       C  0.52564397  0.52901984  0.54124366     0.09900
C2536       C  0.54062557  0.51959763  0.56817572    -0.12300
H2537       H  0.57385677  0.52905634  0.60180596     0.13800
H2538       H  0.55907332  0.59607858  0.53124305     0.13800
H2539       H  0.52086661  0.56477196  0.50758203     0.13800
H2540       H  0.53627405  0.49809835  0.57856641     0.13800
C2541       C  0.62644738  0.80582519  0.57474519    -0.12200
C2542       C  0.62703953  0.82114584  0.59721667    -0.13800
C2543       C  0.68982225  0.82544492  0.71738338    -0.12300
C2544       C  0.68037005  0.82110708  0.68679054     0.09900
C2545       C  0.69463535  0.80065573  0.66916889    -0.12300
C2546       C  0.71729689  0.78403189  0.68219102    -0.12300
C2547       C  0.72685591  0.78795446  0.71306886     0.09900
C2548       C  0.71298889  0.80935060  0.73026461    -0.12300
H2549       H  0.67942812  0.84153365  0.73130275     0.13800
H2550       H  0.68757777  0.79674125  0.64561004     0.13800
H2551       H  0.72650163  0.76756491  0.66797393     0.13800
H2552       H  0.71976328  0.81391217  0.75363459     0.13800
C2553       C  0.63031694  0.84947959  0.93301361    -0.12200
C2554       C  0.63104054  0.82655276  0.94783456    -0.13800
C2555       C  0.58073118  0.95868668  0.95791006    -0.12300
C2556       C  0.57587061  0.93470970  0.93827620     0.09900
C2557       C  0.54746638  0.92355830  0.93460229    -0.12300
C2558       C  0.52466639  0.93588536  0.95019482    -0.12300
C2559       C  0.52962002  0.96004163  0.96922936     0.09900
C2560       C  0.55776394  0.97145036  0.97288044    -0.12300
H2561       H  0.60227991  0.96756008  0.96207181     0.13800
H2562       H  0.54248822  0.90573356  0.91921176     0.13800
H2563       H  0.50301670  0.92677231  0.94709205     0.13800
H2564       H  0.56212437  0.98966805  0.98805493     0.13800
C2565       C  0.63131763  0.68412837  0.90876158    -0.12200
C2566       C  0.62931440  0.70082375  0.92990031    -0.13800
C2567       C  0.71197960  0.67954237  0.82470784    -0.12300
C2568       C  0.68306714  0.68821296  0.82069336     0.09900
C2569       C  0.67658219  0.71276636  0.80149703    -0.12300
C2570       C  0.69864288  0.72788339  0.78590066    -0.12300
C2571       C  0.72733243  0.71819531  0.78872878     0.09900
C2572       C  0.73389062  0.69420404  0.80860903    -0.12300
H2573       H  0.71747780  0.66051047  0.83913502     0.13800
H2574       H  0.65440353  0.71989651  0.79816613     0.13800
H2575       H  0.69311289  0.74617867  0.77045131     0.13800
H2576       H  0.75588743  0.68639569  0.81108330     0.13800
C2577       C  0.56132750  0.86878209  0.70435180    -0.12200
C2578       C  0.58165915  0.86497521  0.68808518    -0.13800
C2579       C  0.57908136  0.89017114  0.84907598    -0.12200
C2580       C  0.55972039  0.88554629  0.83038073    -0.13800
C2581       C  0.91961538  0.87065871  0.67729347    -0.12200
C2582       C  0.93850177  0.86965678  0.69709488    -0.13800
C2583       C  0.90143034  0.92683641  0.55445987    -0.12300
C2584       C  0.91348404  0.91322821  0.58106088     0.09900
C2585       C  0.94336363  0.91559115  0.58696018    -0.12300
C2586       C  0.96052057  0.93334862  0.56768164    -0.12300
C2587       C  0.94800331  0.94926970  0.54246442     0.10100
C2588       C  0.91844625  0.94440485  0.53524841    -0.12300
H2589       H  0.87855066  0.92432009  0.54882643     0.13800
H2590       H  0.95313619  0.90493874  0.60717476     0.13800
H2591       H  0.98347241  0.93551518  0.57310591     0.13800
H2592       H  0.90800920  0.95384943  0.51488269     0.13800
C2593       C  0.93384054  0.88350098  0.82261155    -0.12200
C2594       C  0.91223114  0.88371835  0.83767928    -0.13800
C2595       C  0.83576130  0.80444052  0.82975807    -0.12300
C2596       C  0.82601252  0.83366399  0.82841682     0.09900
C2597       C  0.80320007  0.84090311  0.80737786    -0.12300
C2598       C  0.79028253  0.81954506  0.78873682    -0.12300
C2599       C  0.80037999  0.79066243  0.78990291     0.09900
C2600       C  0.82328492  0.78325202  0.81044847    -0.12300
H2601       H  0.85274924  0.79764405  0.84590152     0.13800
H2602       H  0.79546074  0.86316935  0.80467386     0.13800
H2603       H  0.77299932  0.82583997  0.77263251     0.13800
H2604       H  0.83129773  0.76095196  0.81179256     0.13800
C2605       C  0.87230911  0.82587156  0.59176409    -0.12200
C2606       C  0.87258982  0.80697868  0.57273872    -0.13800
C2607       C  0.87254224  0.83698349  0.92258718    -0.12200
C2608       C  0.87650055  0.81815684  0.94233002    -0.13800
C2609       C  0.87601550  0.68379909  0.56380030    -0.12200
C2610       C  0.87226746  0.66408718  0.58253905    -0.13800
C2611       C  0.79925474  0.67113595  0.67204734    -0.12300
C2612       C  0.82932052  0.66700810  0.67341193     0.09900
C2613       C  0.84652840  0.68514944  0.69244093    -0.12300
C2614       C  0.83372386  0.70637241  0.71054234    -0.12300
C2615       C  0.80338297  0.70977567  0.70984056     0.09900
C2616       C  0.78654496  0.69199104  0.69006009    -0.12300
H2617       H  0.78533096  0.65823822  0.65695811     0.13800
H2618       H  0.86979209  0.68240170  0.69403474     0.13800
H2619       H  0.84773285  0.71933293  0.72529463     0.13800
H2620       H  0.76318110  0.69407292  0.68880852     0.13800
C2621       C  0.66825417  0.90763573  0.63885054    -0.12200
C2622       C  0.68532475  0.92775024  0.63591347    -0.13800
C2623       C  0.80438862  0.92624654  0.64002407    -0.12200
C2624       C  0.82408807  0.90914352  0.64015907    -0.13800
C2625       C  0.68753978  0.55251585  0.61865696    -0.12200
C2626       C  0.66765574  0.56930858  0.61490505    -0.13800
C2627       C  0.82578386  0.57084687  0.62168210    -0.12200
C2628       C  0.80889543  0.55038731  0.62136564    -0.13800
C2629       C  0.82608131  0.92912176  0.88237370    -0.12200
C2630       C  0.81040711  0.95007151  0.88306145    -0.13800
C2631       C  0.66992084  0.94182258  0.88452578    -0.12200
C2632       C  0.68981245  0.95917550  0.88157450    -0.13800
C2633       C  0.70041407  0.58367414  0.87297779    -0.12200
C2634       C  0.68229781  0.60258974  0.87001078    -0.13800
C2635       C  0.88369397  0.69689915  0.93410154    -0.12200
C2636       C  0.88745014  0.67752805  0.91623081    -0.13800
C2637       C  0.84607816  0.58574617  0.87501823    -0.12200
C2638       C  0.82469165  0.57015542  0.87398964    -0.13800
C2639       C  0.95027053  0.56017292  0.91538462    -0.12300
C2640       C  0.92947058  0.57832135  0.92814410     0.09900
C2641       C  0.92253643  0.57418684  0.95928416    -0.12300
C2642       C  0.93585324  0.55234131  0.97735740    -0.12300
C2643       C  0.95653879  0.53409834  0.96478767     0.09900
C2644       C  0.96401679  0.53833219  0.93379213    -0.12300
H2645       H  0.95605880  0.56313565  0.89150327     0.13800
H2646       H  0.90634923  0.58765913  0.96965833     0.13800
H2647       H  0.92986622  0.54954146  0.50121471     0.13800
H2648       H  0.97988318  0.52428747  0.92368936     0.13800
C2649       C  0.91465339  0.61622923  0.66708700    -0.12200
C2650       C  0.93667807  0.61579240  0.68253416    -0.13800
C2651       C  0.56956435  0.62604321  0.80162189    -0.12200
C2652       C  0.58994157  0.63145879  0.81852281    -0.13800
C2653       C  0.56007775  0.61695113  0.67280157    -0.12200
C2654       C  0.57748012  0.61371922  0.65280715    -0.13800
C2655       C  0.94855084  0.62183273  0.81009484    -0.12200
C2656       C  0.93262809  0.62280821  0.83174096    -0.13800
loop_ 
_geom_bond_atom_site_label_1 
_geom_bond_atom_site_label_2 
_geom_bond_distance 
_geom_bond_site_symmetry_2 
_ccdc_geom_bond_type 
O1            V9   1.905       .  S
O1           C11   1.264       .  A
O2         V1337   1.904       .  S
O2           C12   1.264       .  A
O3            V9   1.901       .  S
O3           C13   1.263       .  A
O4         V1337   1.901       .  S
O4           C14   1.262       .  A
O5           V10   1.907       .  S
O5           C14   1.265       .  A
O6         V1338   1.909       .  S
O6           C13   1.265       .  A
O7           V10   1.891       .  S
O7           C12   1.260       .  A
O8         V1338   1.891       .  S
O8           C11   1.260       .  A
V9         O1330   1.904   1_455  S
V9         O1332   1.901   1_455  S
V9         V1338   2.090       .  T
V10        O1334   1.909       .  S
V10        O1336   1.891       .  S
V10        V1337   2.090       .  T
C11         C327   1.431       .  S
C12         C326   1.431       .  S
C13         C329   1.442       .  S
C14         C331   1.440       .  S
C15          C16   1.527       .  S
C15          C21   1.531       .  S
C15          C19   1.527       .  S
C15         C312   1.463       .  S
C16          H23   1.087       .  S
C16          C17   1.361       .  D
C17          C18   1.546       .  S
C17         C313   1.445       .  S
C18          C22   1.545       .  S
C18          C20   1.543       .  S
C18          H24   1.111       .  S
C19          H25   1.086       .  S
C19          C20   1.364       .  D
C20         C316   1.481       .  S
C21          H26   1.086       .  S
C21          C22   1.367       .  D
C22         C332   1.446       .  S
O27          V35   1.903       .  S
O27          C37   1.263       .  A
O28         V699   1.897       .  S
O28          C38   1.261       .  A
O29          V35   1.904       .  S
O29          C39   1.264       .  A
O30         V699   1.906       .  S
O30          C40   1.265       .  A
O31         V700   1.904       .  S
O31          C40   1.263       .  A
O32          V36   1.903       .  S
O32          C39   1.263       .  A
O33         V700   1.901       .  S
O33          C38   1.264       .  A
O34          V36   1.906       .  S
O34          C37   1.265       .  A
V35         O692   1.897   1_545  S
V35         O694   1.906   1_545  S
V35          V36   2.090       .  T
V36         O695   1.904   1_545  S
V36         O697   1.901   1_545  S
C37         C309   1.441       .  S
C38         C306   1.433       .  S
C39         C314   1.440       .  S
C40         C308   1.442       .  S
O41         V713   1.899   1_545  S
O41          C51   1.262       .  A
O42          V49   1.897       .  S
O42          C52   1.261       .  A
O43         V713   1.902   1_545  S
O43          C53   1.264       .  A
O44          V49   1.903       .  S
O44          C54   1.264       .  A
O45          V50   1.896       .  S
O45          C54   1.261       .  A
O46         V714   1.899   1_545  S
O46          C53   1.261       .  A
O47          V50   1.900       .  S
O47          C52   1.264       .  A
O48         V714   1.904   1_545  S
O48          C51   1.264       .  A
V49         O705   1.899       .  S
V49         O707   1.902       .  S
V49          V50   2.091       .  T
V50         O710   1.899       .  S
V50         O712   1.904       .  S
C51         C301   1.436       .  S
C52         C299   1.432       .  S
C53         C304   1.435       .  S
C54         C298   1.435       .  S
C55          C56   1.529       .  S
C55          C61   1.537       .  S
C55          C59   1.527       .  S
C55         C303   1.467       .  S
C56          H63   1.087       .  S
C56          C57   1.362       .  D
C57          C58   1.539       .  S
C57         C325   1.437       .  S
C58          C62   1.538       .  S
C58          C60   1.542       .  S
C58          H64   1.111       .  S
C59          H65   1.086       .  S
C59          C60   1.366       .  D
C60         C288   1.485       .  S
C61          H66   1.086       .  S
C61          C62   1.368       .  D
C62         C286   1.445       .  S
O67         V407   1.910       .  S
O67          C77   1.265       .  A
O68          V75   1.911       .  S
O68          C78   1.266       .  A
O69         V407   1.893       .  S
O69          C79   1.261       .  A
O70          V75   1.895       .  S
O70          C80   1.261       .  A
O71          V76   1.905       .  S
O71          C80   1.264       .  A
O72         V408   1.903       .  S
O72          C79   1.264       .  A
O73          V76   1.895       .  S
O73          C78   1.261       .  A
O74         V408   1.894       .  S
O74          C77   1.261       .  A
V75         O399   1.910   1_554  S
V75         O401   1.893   1_554  S
V75          V76   2.091       .  T
V76         O404   1.903   1_554  S
V76         O406   1.894   1_554  S
C77         C284   1.438       .  S
C78         C285   1.439       .  S
C79         C311   1.431       .  S
C80         C282   1.434       .  S
C81          C82   1.532       .  S
C81          C87   1.532       .  S
C81          C85   1.527       .  S
C81         C305   1.465       .  S
C82          H89   1.087       .  S
C82          C83   1.362       .  D
C83          C84   1.539       .  S
C83         C270   1.443       .  S
C84          C88   1.541       .  S
C84          C86   1.550       .  S
C84          H90   1.109       .  S
C85          H91   1.085       .  S
C85          C86   1.368       .  D
C86         C272   1.496       .  S
C87          H92   1.087       .  S
C87          C88   1.365       .  D
C88         C283   1.444       .  S
C93          C94   1.531       .  S
C93          C99   1.531       .  S
C93          C97   1.525       .  S
C93         C300   1.463       .  S
C94         H101   1.087       .  S
C94          C95   1.366       .  D
C95          C96   1.542       .  S
C95         C257   1.445       .  S
C96         C100   1.542       .  S
C96          C98   1.539       .  S
C96         H102   1.111       .  S
C97         H103   1.088       .  S
C97          C98   1.361       .  D
C98         C260   1.475       .  S
C99         H104   1.087       .  S
C99         C100   1.365       .  D
C100        C281   1.440       .  S
O105        V113   1.904   1_455  S
O105        C115   1.264       .  A
O106       V1441   1.906       .  S
O106        C116   1.264       .  A
O107        V113   1.901   1_455  S
O107        C117   1.263       .  A
O108       V1441   1.898       .  S
O108        C118   1.262       .  A
O109       V1442   1.909       .  S
O109        C118   1.265       .  A
O110        V114   1.911   1_455  S
O110        C117   1.266       .  A
O111       V1442   1.897       .  S
O111        C116   1.261       .  A
O112        V114   1.895   1_455  S
O112        C115   1.261       .  A
V113       O1434   1.906       .  S
V113       O1436   1.898       .  S
V113        V114   2.090       .  T
V114       O1437   1.909       .  S
V114       O1439   1.897       .  S
C115        C253   1.433       .  S
C116        C269   1.437       .  S
C117        C256   1.444       .  S
C118        C258   1.440       .  S
C119        C120   1.531       .  S
C119        C125   1.530       .  S
C119        C123   1.534       .  S
C119        C328   1.465       .  S
C120        H127   1.086       .  S
C120        C121   1.364       .  D
C121        C122   1.546       .  S
C121        C241   1.448       .  S
C122        C126   1.542       .  S
C122        C124   1.541       .  S
C122        H128   1.111       .  S
C123        H129   1.086       .  S
C123        C124   1.367       .  D
C124        C244   1.481       .  S
C125        H130   1.087       .  S
C125        C126   1.362       .  D
C126        C310   1.447       .  S
C131        C132   1.538       .  S
C131        C137   1.534       .  S
C131        C135   1.529       .  S
C131        C307   1.475       .  S
C132        H139   1.086       .  S
C132        C133   1.368       .  D
C133        C134   1.538       .  S
C133        C255   1.450       .  S
C134        C138   1.541       .  S
C134        C136   1.548       .  S
C134        H140   1.109       .  S
C135        H141   1.085       .  S
C135        C136   1.368       .  D
C136        C232   1.492       .  S
C137        H142   1.087       .  S
C137        C138   1.364       .  D
C138        C229   1.450       .  S
C143        C144   1.534       .  S
C143        C149   1.529       .  S
C143        C147   1.535       .  S
C143        C254   1.466       .  S
C144        H151   1.087       .  S
C144        C145   1.364       .  D
C145        C146   1.542       .  S
C145        C218   1.449       .  S
C146        C150   1.541       .  S
C146        C148   1.542       .  S
C146        H152   1.111       .  S
C147        H153   1.086       .  S
C147        C148   1.367       .  D
C148        C220   1.482       .  S
C149        H154   1.087       .  S
C149        C150   1.361       .  D
C150        C297   1.441       .  S
C155        C156   1.536       .  S
C155        C161   1.529       .  S
C155        C159   1.526       .  S
C155        C302   1.469       .  S
C156        H163   1.086       .  S
C156        C157   1.367       .  D
C157        C158   1.541       .  S
C157        C330   1.448       .  S
C158        C162   1.547       .  S
C158        C160   1.544       .  S
C158        H164   1.111       .  S
C159        H165   1.088       .  S
C159        C160   1.363       .  D
C160        C208   1.480       .  S
C161        H166   1.087       .  S
C161        C162   1.365       .  D
C162        C206   1.447       .  S
O167        V175   1.911   1_554  S
O167        C177   1.266       .  A
O168        V507   1.911       .  S
O168        C178   1.266       .  A
O169        V175   1.899   1_554  S
O169        C179   1.262       .  A
O170        V507   1.900       .  S
O170        C180   1.262       .  A
O171        V508   1.912       .  S
O171        C180   1.266       .  A
O172        V176   1.910       .  S
O172        C179   1.266       .  A
O173        V508   1.898       .  S
O173        C178   1.261       .  A
O174        V176   1.900       .  S
O174        C177   1.262       .  A
V175        O500   1.911       .  S
V175        O502   1.900       .  S
V175        V176   2.089   1_556  T
V176        O503   1.912   1_554  S
V176        O505   1.898   1_554  S
C177        C217   1.443       .  S
C178        C242   1.442       .  S
C179        C205   1.441       .  S
C180        C230   1.444       .  S
C181        C182   1.527       .  S
C181        C187   1.538       .  S
C181        C185   1.540       .  S
C181        C263   1.524       .  S
C182        H189   1.086       .  S
C182       C1843   1.363   1_554  D
C183        C848   1.542       .  S
C183       C1842   1.363   1_455  D
C183        C235   1.475       .  S
C184        C847   1.542   1_545  S
C184       C1516   1.538   1_455  S
C184        C518   1.540       .  S
C184        H190   1.110       .  S
C185        H191   1.086       .  S
C185       C2178   1.370       .  D
C186        C516   1.540   1_554  S
C186       C2177   1.370   1_445  D
C186        C211   1.485       .  S
C187        H192   1.083   1_554  S
C187       C1184   1.363   1_554  D
C188       C1512   1.538       .  S
C188       C1183   1.363   1_545  D
C188        C319   1.478       .  S
C193        C194   1.533       .  S
C193        C199   1.536       .  S
C193        C197   1.538       .  S
C193        C291   1.522       .  S
C194        H201   1.087       .  S
C194        C195   1.360       .  D
C195        C196   1.537       .  S
C195        C247   1.479       .  S
C196        C200   1.546       .  S
C196        C198   1.547       .  S
C196        H202   1.106       .  S
C197        H203   1.084       .  S
C197        C198   1.370       .  D
C198        C223   1.503       .  S
C199        H204   1.082       .  S
C199        C200   1.367       .  D
C200        C275   1.479       .  S
C205        C206   1.209       .  T
C207        C208   1.404       .  A
C207        C212   1.392       .  A
C207        H213   1.083       .  S
C208        C209   1.403       .  A
C209        C210   1.406       .  A
C209        H214   1.085       .  S
C210        C211   1.408       .  A
C210        H215   1.082       .  S
C211        C212   1.402       .  A
C212        H216   1.084   1_545  S
C217        C218   1.210       .  T
C219        C220   1.403       .  A
C219        C224   1.400       .  A
C219        H225   1.084       .  S
C220        C221   1.399       .  A
C221        C222   1.398       .  A
C221        H226   1.082       .  S
C222        C223   1.413       .  A
C222        H227   1.079       .  S
C223        C224   1.409       .  A
C224        H228   1.077       .  S
C229        C230   1.211       .  T
C231        C232   1.411       .  A
C231        C236   1.397       .  A
C231        H237   1.081       .  S
C232        C233   1.406       .  A
C233        C234   1.396       .  A
C233        H238   1.080       .  S
C234        C235   1.402       .  A
C234        H239   1.083       .  S
C235        C236   1.399       .  A
C236        H240   1.083       .  S
C241        C242   1.210       .  T
C243        C244   1.402       .  A
C243        C248   1.397       .  A
C243        H249   1.084       .  S
C244        C245   1.406       .  A
C245        C246   1.400       .  A
C245        H250   1.083       .  S
C246        C247   1.403       .  A
C246        H251   1.084       .  S
C247        C248   1.404       .  A
C248        H252   1.082       .  S
C253        C254   1.205       .  T
C255        C256   1.211       .  T
C257        C258   1.208       .  T
C259        C260   1.401       .  A
C259        C264   1.390       .  A
C259        H265   1.083       .  S
C260        C261   1.400       .  A
C261        C262   1.400       .  A
C261        H266   1.082       .  S
C262        C263   1.411       .  A
C262        H267   1.083       .  S
C263        C264   1.408       .  A
C264        H268   1.077       .  S
C269        C270   1.207       .  T
C271        C272   1.407       .  A
C271        C276   1.400       .  A
C271        H277   1.081       .  S
C272        C273   1.412       .  A
C273        C274   1.396       .  A
C273        H278   1.080       .  S
C274        C275   1.398       .  A
C274        H279   1.083       .  S
C275        C276   1.404       .  A
C276        H280   1.083       .  S
C281        C282   1.205       .  T
C283        C284   1.207       .  T
C285        C286   1.208       .  T
C287        C288   1.403       .  A
C287        C292   1.388       .  A
C287        H293   1.083       .  S
C288        C289   1.405       .  A
C289        C290   1.404       .  A
C289        H294   1.083       .  S
C290        C291   1.411       .  A
C290        H295   1.078       .  S
C291        C292   1.406       .  A
C292        H296   1.084       .  S
C297        C298   1.206       .  T
C299        C300   1.204       .  T
C301        C302   1.207       .  T
C303        C304   1.206       .  T
C305        C306   1.205       .  T
C307        C308   1.210       .  T
C309        C310   1.209       .  T
C311        C312   1.204       .  T
C313        C314   1.208       .  T
C315        C316   1.406       .  A
C315        C320   1.406       .  A
C315        H321   1.081       .  S
C316        C317   1.403       .  A
C317        C318   1.389       .  A
C317        H322   1.085       .  S
C318        C319   1.402       .  A
C318        H655   1.081       .  S
C319        C320   1.404       .  A
C320        H324   1.085       .  S
H323        C650   1.081   1_554  S
C325        C326   1.203       .  T
C327        C328   1.204       .  T
C329        C330   1.210       .  T
C331        C332   1.209       .  T
O333        V341   1.905       .  S
O333        C343   1.264       .  A
O334       V1669   1.904       .  S
O334        C344   1.264       .  A
O335        V341   1.901       .  S
O335        C345   1.263       .  A
O336       V1669   1.901       .  S
O336        C346   1.262       .  A
O337        V342   1.907       .  S
O337        C346   1.265       .  A
O338       V1670   1.909       .  S
O338        C345   1.265       .  A
O339        V342   1.891       .  S
O339        C344   1.260       .  A
O340       V1670   1.891       .  S
O340        C343   1.260       .  A
V341       O1662   1.904   1_455  S
V341       O1664   1.901   1_455  S
V341       V1670   2.090       .  T
V342       O1666   1.909       .  S
V342       O1668   1.891       .  S
V342       V1669   2.090       .  T
C343        C659   1.431       .  S
C344        C658   1.431       .  S
C345        C661   1.442       .  S
C346        C663   1.440       .  S
C347        C348   1.527       .  S
C347        C353   1.531       .  S
C347        C351   1.527       .  S
C347        C644   1.463       .  S
C348        H355   1.087       .  S
C348        C349   1.361       .  D
C349        C350   1.546       .  S
C349        C645   1.445       .  S
C350        C354   1.545       .  S
C350        C352   1.543       .  S
C350        H356   1.111       .  S
C351        H357   1.086       .  S
C351        C352   1.364       .  D
C352        C648   1.481       .  S
C353        H358   1.086       .  S
C353        C354   1.367       .  D
C354        C664   1.446       .  S
O359        V367   1.903       .  S
O359        C369   1.263       .  A
O360       V1031   1.897       .  S
O360        C370   1.261       .  A
O361        V367   1.904       .  S
O361        C371   1.264       .  A
O362       V1031   1.906       .  S
O362        C372   1.265       .  A
O363       V1032   1.904       .  S
O363        C372   1.263       .  A
O364        V368   1.903       .  S
O364        C371   1.263       .  A
O365       V1032   1.901       .  S
O365        C370   1.264       .  A
O366        V368   1.906       .  S
O366        C369   1.265       .  A
V367       O1024   1.897   1_545  S
V367       O1026   1.906   1_545  S
V367        V368   2.090       .  T
V368       O1027   1.904   1_545  S
V368       O1029   1.901   1_545  S
C369        C641   1.441       .  S
C370        C638   1.433       .  S
C371        C646   1.440       .  S
C372        C640   1.442       .  S
O373       V1045   1.899   1_545  S
O373        C383   1.262       .  A
O374        V381   1.897       .  S
O374        C384   1.261       .  A
O375       V1045   1.902   1_545  S
O375        C385   1.264       .  A
O376        V381   1.903       .  S
O376        C386   1.264       .  A
O377        V382   1.896       .  S
O377        C386   1.261       .  A
O378       V1046   1.899   1_545  S
O378        C385   1.261       .  A
O379        V382   1.900       .  S
O379        C384   1.264       .  A
O380       V1046   1.904   1_545  S
O380        C383   1.264       .  A
V381       O1037   1.899       .  S
V381       O1039   1.902       .  S
V381        V382   2.091       .  T
V382       O1042   1.899       .  S
V382       O1044   1.904       .  S
C383        C633   1.436       .  S
C384        C631   1.432       .  S
C385        C636   1.435       .  S
C386        C630   1.435       .  S
C387        C388   1.529       .  S
C387        C393   1.537       .  S
C387        C391   1.527       .  S
C387        C635   1.467       .  S
C388        H395   1.087       .  S
C388        C389   1.362       .  D
C389        C390   1.539       .  S
C389        C657   1.437       .  S
C390        C394   1.538       .  S
C390        C392   1.542       .  S
C390        H396   1.111       .  S
C391        H397   1.086       .  S
C391        C392   1.366       .  D
C392        C620   1.485       .  S
C393        H398   1.086       .  S
C393        C394   1.368       .  D
C394        C618   1.445       .  S
O399        C409   1.265       .  A
O400        V407   1.911       .  S
O400        C410   1.266       .  A
O401        C411   1.261       .  A
O402        V407   1.895       .  S
O402        C412   1.261       .  A
O403        V408   1.905       .  S
O403        C412   1.264       .  A
O404        C411   1.264       .  A
O405        V408   1.895       .  S
O405        C410   1.261       .  A
O406        C409   1.261       .  A
V407        V408   2.091       .  T
C409        C616   1.438       .  S
C410        C617   1.439       .  S
C411        C643   1.431       .  S
C412        C614   1.434       .  S
C413        C414   1.532       .  S
C413        C419   1.532       .  S
C413        C417   1.527       .  S
C413        C637   1.465       .  S
C414        H421   1.087       .  S
C414        C415   1.362       .  D
C415        C416   1.539       .  S
C415        C602   1.443       .  S
C416        C420   1.541       .  S
C416        C418   1.550       .  S
C416        H422   1.109       .  S
C417        H423   1.085       .  S
C417        C418   1.368       .  D
C418        C604   1.496       .  S
C419        H424   1.087       .  S
C419        C420   1.365       .  D
C420        C615   1.444       .  S
C425        C426   1.531       .  S
C425        C431   1.531       .  S
C425        C429   1.525       .  S
C425        C632   1.463       .  S
C426        H433   1.087       .  S
C426        C427   1.366       .  D
C427        C428   1.542       .  S
C427        C589   1.445       .  S
C428        C432   1.542       .  S
C428        C430   1.539       .  S
C428        H434   1.111       .  S
C429        H435   1.088       .  S
C429        C430   1.361       .  D
C430        C592   1.475       .  S
C431        H436   1.087       .  S
C431        C432   1.365       .  D
C432        C613   1.440       .  S
O437        V445   1.904   1_455  S
O437        C447   1.264       .  A
O438       V1773   1.906       .  S
O438        C448   1.264       .  A
O439        V445   1.901   1_455  S
O439        C449   1.263       .  A
O440       V1773   1.898       .  S
O440        C450   1.262       .  A
O441       V1774   1.909       .  S
O441        C450   1.265       .  A
O442        V446   1.911   1_455  S
O442        C449   1.266       .  A
O443       V1774   1.897       .  S
O443        C448   1.261       .  A
O444        V446   1.895   1_455  S
O444        C447   1.261       .  A
V445       O1766   1.906       .  S
V445       O1768   1.898       .  S
V445        V446   2.090       .  T
V446       O1769   1.909       .  S
V446       O1771   1.897       .  S
C447        C585   1.433       .  S
C448        C601   1.437       .  S
C449        C588   1.444       .  S
C450        C590   1.440       .  S
C451        C452   1.531       .  S
C451        C457   1.530       .  S
C451        C455   1.534       .  S
C451        C660   1.465       .  S
C452        H459   1.086       .  S
C452        C453   1.364       .  D
C453        C454   1.546       .  S
C453        C573   1.448       .  S
C454        C458   1.542       .  S
C454        C456   1.541       .  S
C454        H460   1.111       .  S
C455        H461   1.086       .  S
C455        C456   1.367       .  D
C456        C576   1.481       .  S
C457        H462   1.087       .  S
C457        C458   1.362       .  D
C458        C642   1.447       .  S
C463        C464   1.538       .  S
C463        C469   1.534       .  S
C463        C467   1.529       .  S
C463        C639   1.475       .  S
C464        H471   1.086       .  S
C464        C465   1.368       .  D
C465        C466   1.538       .  S
C465        C587   1.450       .  S
C466        C470   1.541       .  S
C466        C468   1.548       .  S
C466        H472   1.109       .  S
C467        H473   1.085       .  S
C467        C468   1.368       .  D
C468        C564   1.492       .  S
C469        H474   1.087       .  S
C469        C470   1.364       .  D
C470        C561   1.450       .  S
C475        C476   1.534       .  S
C475        C481   1.529       .  S
C475        C479   1.535       .  S
C475        C586   1.466       .  S
C476        H483   1.087       .  S
C476        C477   1.364       .  D
C477        C478   1.542       .  S
C477        C550   1.449       .  S
C478        C482   1.541       .  S
C478        C480   1.542       .  S
C478        H484   1.111       .  S
C479        H485   1.086       .  S
C479        C480   1.367       .  D
C480        C552   1.482       .  S
C481        H486   1.087       .  S
C481        C482   1.361       .  D
C482        C629   1.441       .  S
C487        C488   1.536       .  S
C487        C493   1.529       .  S
C487        C491   1.526       .  S
C487        C634   1.469       .  S
C488        H495   1.086       .  S
C488        C489   1.367       .  D
C489        C490   1.541       .  S
C489        C662   1.448       .  S
C490        C494   1.547       .  S
C490        C492   1.544       .  S
C490        H496   1.111       .  S
C491        H497   1.088       .  S
C491        C492   1.363       .  D
C492        C540   1.480       .  S
C493        H498   1.087       .  S
C493        C494   1.365       .  D
C494        C538   1.447       .  S
O499        V507   1.911       .  S
O499        C509   1.266       .  A
O500        C510   1.266       .  A
O501        V507   1.899       .  S
O501        C511   1.262       .  A
O502        C512   1.262       .  A
O503        C512   1.266       .  A
O504        V508   1.910       .  S
O504        C511   1.266       .  A
O505        C510   1.261       .  A
O506        V508   1.900       .  S
O506        C509   1.262       .  A
V507        V508   2.089       .  T
C509        C549   1.443       .  S
C510        C574   1.442       .  S
C511        C537   1.441       .  S
C512        C562   1.444       .  S
C513        C514   1.527       .  S
C513        C519   1.538       .  S
C513        C517   1.540       .  S
C513        C595   1.524       .  S
C514        H521   1.086       .  S
C514       C1511   1.363       .  D
C515       C1180   1.542       .  S
C515       C1510   1.363   1_456  D
C515        C567   1.475       .  S
C516       C1179   1.542   1_545  S
C516       C1848   1.538   1_455  S
C516        H522   1.110       .  S
C517        H523   1.086       .  S
C517       C2510   1.370       .  D
C518       C2509   1.370   1_445  D
C518        C543   1.485       .  S
C519        H524   1.083       .  S
C519        C852   1.363       .  D
C520       C1844   1.538       .  S
C520        C851   1.363   1_546  D
C520        C651   1.478       .  S
C525        C526   1.533       .  S
C525        C531   1.536       .  S
C525        C529   1.538       .  S
C525        C623   1.522       .  S
C526        H533   1.087       .  S
C526        C527   1.360       .  D
C527        C528   1.537       .  S
C527        C579   1.479       .  S
C528        C532   1.546       .  S
C528        C530   1.547       .  S
C528        H534   1.106       .  S
C529        H535   1.084       .  S
C529        C530   1.370       .  D
C530        C555   1.503       .  S
C531        H536   1.082       .  S
C531        C532   1.367       .  D
C532        C607   1.479       .  S
C537        C538   1.209       .  T
C539        C540   1.404       .  A
C539        C544   1.392       .  A
C539        H545   1.083       .  S
C540        C541   1.403       .  A
C541        C542   1.406       .  A
C541        H546   1.085       .  S
C542        C543   1.408       .  A
C542        H547   1.082       .  S
C543        C544   1.402       .  A
C544        H548   1.084   1_545  S
C549        C550   1.210       .  T
C551        C552   1.403       .  A
C551        C556   1.400       .  A
C551        H557   1.084       .  S
C552        C553   1.399       .  A
C553        C554   1.398       .  A
C553        H558   1.082       .  S
C554        C555   1.413       .  A
C554        H559   1.079       .  S
C555        C556   1.409       .  A
C556        H560   1.077       .  S
C561        C562   1.211       .  T
C563        C564   1.411       .  A
C563        C568   1.397       .  A
C563        H569   1.081       .  S
C564        C565   1.406       .  A
C565        C566   1.396       .  A
C565        H570   1.080       .  S
C566        C567   1.402       .  A
C566        H571   1.083       .  S
C567        C568   1.399       .  A
C568        H572   1.083       .  S
C573        C574   1.210       .  T
C575        C576   1.402       .  A
C575        C580   1.397       .  A
C575        H581   1.084       .  S
C576        C577   1.406       .  A
C577        C578   1.400       .  A
C577        H582   1.083       .  S
C578        C579   1.403       .  A
C578        H583   1.084       .  S
C579        C580   1.404       .  A
C580        H584   1.082       .  S
C585        C586   1.205       .  T
C587        C588   1.211       .  T
C589        C590   1.208       .  T
C591        C592   1.401       .  A
C591        C596   1.390       .  A
C591        H597   1.083       .  S
C592        C593   1.400       .  A
C593        C594   1.400       .  A
C593        H598   1.082       .  S
C594        C595   1.411       .  A
C594        H599   1.083       .  S
C595        C596   1.408       .  A
C596        H600   1.077       .  S
C601        C602   1.207       .  T
C603        C604   1.407       .  A
C603        C608   1.400       .  A
C603        H609   1.081       .  S
C604        C605   1.412       .  A
C605        C606   1.396       .  A
C605        H610   1.080       .  S
C606        C607   1.398       .  A
C606        H611   1.083       .  S
C607        C608   1.404       .  A
C608        H612   1.083       .  S
C613        C614   1.205       .  T
C615        C616   1.207       .  T
C617        C618   1.208       .  T
C619        C620   1.403       .  A
C619        C624   1.388       .  A
C619        H625   1.083       .  S
C620        C621   1.405       .  A
C621        C622   1.404       .  A
C621        H626   1.083       .  S
C622        C623   1.411       .  A
C622        H627   1.078       .  S
C623        C624   1.406       .  A
C624        H628   1.084       .  S
C629        C630   1.206       .  T
C631        C632   1.204       .  T
C633        C634   1.207       .  T
C635        C636   1.206       .  T
C637        C638   1.205       .  T
C639        C640   1.210       .  T
C641        C642   1.209       .  T
C643        C644   1.204       .  T
C645        C646   1.208       .  T
C647        C648   1.406       .  A
C647        C652   1.406       .  A
C647        H653   1.081       .  S
C648        C649   1.403       .  A
C649        C650   1.389       .  A
C649        H654   1.085       .  S
C650        C651   1.402       .  A
C651        C652   1.404       .  A
C652        H656   1.085       .  S
C657        C658   1.203       .  T
C659        C660   1.204       .  T
C661        C662   1.210       .  T
C663        C664   1.209       .  T
O665        V673   1.905       .  S
O665        C675   1.264       .  A
O666       V2001   1.904       .  S
O666        C676   1.264       .  A
O667        V673   1.901       .  S
O667        C677   1.263       .  A
O668       V2001   1.901       .  S
O668        C678   1.262       .  A
O669        V674   1.907       .  S
O669        C678   1.265       .  A
O670       V2002   1.909       .  S
O670        C677   1.265       .  A
O671        V674   1.891       .  S
O671        C676   1.260       .  A
O672       V2002   1.891       .  S
O672        C675   1.260       .  A
V673       O1994   1.904   1_455  S
V673       O1996   1.901   1_455  S
V673       V2002   2.090       .  T
V674       O1998   1.909       .  S
V674       O2000   1.891       .  S
V674       V2001   2.090       .  T
C675        C991   1.431       .  S
C676        C990   1.431       .  S
C677        C993   1.442       .  S
C678        C995   1.440       .  S
C679        C680   1.527       .  S
C679        C685   1.531       .  S
C679        C683   1.527       .  S
C679        C976   1.463       .  S
C680        H687   1.087       .  S
C680        C681   1.361       .  D
C681        C682   1.546       .  S
C681        C977   1.445       .  S
C682        C686   1.545       .  S
C682        C684   1.543       .  S
C682        H688   1.111       .  S
C683        H689   1.086       .  S
C683        C684   1.364       .  D
C684        C980   1.481       .  S
C685        H690   1.086       .  S
C685        C686   1.367       .  D
C686        C996   1.446       .  S
O691        V699   1.903       .  S
O691        C701   1.263       .  A
O692        C702   1.261       .  A
O693        V699   1.904       .  S
O693        C703   1.264       .  A
O694        C704   1.265       .  A
O695        C704   1.263       .  A
O696        V700   1.903       .  S
O696        C703   1.263       .  A
O697        C702   1.264       .  A
O698        V700   1.906       .  S
O698        C701   1.265       .  A
V699        V700   2.090       .  T
C701        C973   1.441       .  S
C702        C970   1.433       .  S
C703        C978   1.440       .  S
C704        C972   1.442       .  S
O705        C715   1.262       .  A
O706        V713   1.897       .  S
O706        C716   1.261       .  A
O707        C717   1.264       .  A
O708        V713   1.903       .  S
O708        C718   1.264       .  A
O709        V714   1.896       .  S
O709        C718   1.261       .  A
O710        C717   1.261       .  A
O711        V714   1.900       .  S
O711        C716   1.264       .  A
O712        C715   1.264       .  A
V713        V714   2.091       .  T
C715        C965   1.436       .  S
C716        C963   1.432       .  S
C717        C968   1.435       .  S
C718        C962   1.435       .  S
C719        C720   1.529       .  S
C719        C725   1.537       .  S
C719        C723   1.527       .  S
C719        C967   1.467       .  S
C720        H727   1.087       .  S
C720        C721   1.362       .  D
C721        C722   1.539       .  S
C721        C989   1.437       .  S
C722        C726   1.538       .  S
C722        C724   1.542       .  S
C722        H728   1.111       .  S
C723        H729   1.086       .  S
C723        C724   1.366       .  D
C724        C952   1.485       .  S
C725        H730   1.086       .  S
C725        C726   1.368       .  D
C726        C950   1.445       .  S
O731       V1071   1.910       .  S
O731        C741   1.265       .  A
O732        V739   1.911       .  S
O732        C742   1.266       .  A
O733       V1071   1.893       .  S
O733        C743   1.261       .  A
O734        V739   1.895       .  S
O734        C744   1.261       .  A
O735        V740   1.905       .  S
O735        C744   1.264       .  A
O736       V1072   1.903       .  S
O736        C743   1.264       .  A
O737        V740   1.895       .  S
O737        C742   1.261       .  A
O738       V1072   1.894       .  S
O738        C741   1.261       .  A
V739       O1063   1.910   1_554  S
V739       O1065   1.893   1_554  S
V739        V740   2.091       .  T
V740       O1068   1.903   1_554  S
V740       O1070   1.894   1_554  S
C741        C948   1.438       .  S
C742        C949   1.439       .  S
C743        C975   1.431       .  S
C744        C946   1.434       .  S
C745        C746   1.532       .  S
C745        C751   1.532       .  S
C745        C749   1.527       .  S
C745        C969   1.465       .  S
C746        H753   1.087       .  S
C746        C747   1.362       .  D
C747        C748   1.539       .  S
C747        C934   1.443       .  S
C748        C752   1.541       .  S
C748        C750   1.550       .  S
C748        H754   1.109       .  S
C749        H755   1.085       .  S
C749        C750   1.368       .  D
C750        C936   1.496       .  S
C751        H756   1.087       .  S
C751        C752   1.365       .  D
C752        C947   1.444       .  S
C757        C758   1.531       .  S
C757        C763   1.531       .  S
C757        C761   1.525       .  S
C757        C964   1.463       .  S
C758        H765   1.087       .  S
C758        C759   1.366       .  D
C759        C760   1.542       .  S
C759        C921   1.445       .  S
C760        C764   1.542       .  S
C760        C762   1.539       .  S
C760        H766   1.111       .  S
C761        H767   1.088       .  S
C761        C762   1.361       .  D
C762        C924   1.475       .  S
C763        H768   1.087       .  S
C763        C764   1.365       .  D
C764        C945   1.440       .  S
O769        V777   1.904   1_455  S
O769        C779   1.264       .  A
O770       V2105   1.906       .  S
O770        C780   1.264       .  A
O771        V777   1.901   1_455  S
O771        C781   1.263       .  A
O772       V2105   1.898       .  S
O772        C782   1.262       .  A
O773       V2106   1.909       .  S
O773        C782   1.265       .  A
O774        V778   1.911   1_455  S
O774        C781   1.266       .  A
O775       V2106   1.897       .  S
O775        C780   1.261       .  A
O776        V778   1.895   1_455  S
O776        C779   1.261       .  A
V777       O2098   1.906       .  S
V777       O2100   1.898       .  S
V777        V778   2.090       .  T
V778       O2101   1.909       .  S
V778       O2103   1.897       .  S
C779        C917   1.433       .  S
C780        C933   1.437       .  S
C781        C920   1.444       .  S
C782        C922   1.440       .  S
C783        C784   1.531       .  S
C783        C789   1.530       .  S
C783        C787   1.534       .  S
C783        C992   1.465       .  S
C784        H791   1.086       .  S
C784        C785   1.364       .  D
C785        C786   1.546       .  S
C785        C905   1.448       .  S
C786        C790   1.542       .  S
C786        C788   1.541       .  S
C786        H792   1.111       .  S
C787        H793   1.086       .  S
C787        C788   1.367       .  D
C788        C908   1.481       .  S
C789        H794   1.087       .  S
C789        C790   1.362       .  D
C790        C974   1.447       .  S
C795        C796   1.538       .  S
C795        C801   1.534       .  S
C795        C799   1.529       .  S
C795        C971   1.475       .  S
C796        H803   1.086       .  S
C796        C797   1.368       .  D
C797        C798   1.538       .  S
C797        C919   1.450       .  S
C798        C802   1.541       .  S
C798        C800   1.548       .  S
C798        H804   1.109       .  S
C799        H805   1.085       .  S
C799        C800   1.368       .  D
C800        C896   1.492       .  S
C801        H806   1.087       .  S
C801        C802   1.364       .  D
C802        C893   1.450       .  S
C807        C808   1.534       .  S
C807        C813   1.529       .  S
C807        C811   1.535       .  S
C807        C918   1.466       .  S
C808        H815   1.087       .  S
C808        C809   1.364       .  D
C809        C810   1.542       .  S
C809        C882   1.449       .  S
C810        C814   1.541       .  S
C810        C812   1.542       .  S
C810        H816   1.111       .  S
C811        H817   1.086       .  S
C811        C812   1.367       .  D
C812        C884   1.482       .  S
C813        H818   1.087       .  S
C813        C814   1.361       .  D
C814        C961   1.441       .  S
C819        C820   1.536       .  S
C819        C825   1.529       .  S
C819        C823   1.526       .  S
C819        C966   1.469       .  S
C820        H827   1.086       .  S
C820        C821   1.367       .  D
C821        C822   1.541       .  S
C821        C994   1.448       .  S
C822        C826   1.547       .  S
C822        C824   1.544       .  S
C822        H828   1.111       .  S
C823        H829   1.088       .  S
C823        C824   1.363       .  D
C824        C872   1.480       .  S
C825        H830   1.087       .  S
C825        C826   1.365       .  D
C826        C870   1.447       .  S
O831        V839   1.911   1_554  S
O831        C841   1.266       .  A
O832       V1171   1.911       .  S
O832        C842   1.266       .  A
O833        V839   1.899   1_554  S
O833        C843   1.262       .  A
O834       V1171   1.900       .  S
O834        C844   1.262       .  A
O835       V1172   1.912       .  S
O835        C844   1.266       .  A
O836        V840   1.910       .  S
O836        C843   1.266       .  A
O837       V1172   1.898       .  S
O837        C842   1.261       .  A
O838        V840   1.900       .  S
O838        C841   1.262       .  A
V839       O1164   1.911       .  S
V839       O1166   1.900       .  S
V839        V840   2.089   1_556  T
V840       O1167   1.912   1_554  S
V840       O1169   1.898   1_554  S
C841        C881   1.443       .  S
C842        C906   1.442       .  S
C843        C869   1.441       .  S
C844        C894   1.444       .  S
C845        C846   1.527       .  S
C845        C851   1.538       .  S
C845        C849   1.540       .  S
C845        C927   1.524       .  S
C846        H853   1.087       .  S
C846       C2507   1.363   1_554  D
C847       C2506   1.363   1_455  D
C847        C899   1.475       .  S
C848       C2180   1.538   1_455  S
C848       C1182   1.540       .  S
C848        H854   1.110       .  S
C849        H855   1.086       .  S
C849       C1514   1.370   1_565  D
C850       C1180   1.540   1_554  S
C850       C1513   1.370   1_455  D
C850        C875   1.485       .  S
C851        H856   1.083   1_554  S
C852       C2176   1.538       .  S
C852        C983   1.478       .  S
C857        C858   1.533       .  S
C857        C863   1.536       .  S
C857        C861   1.538       .  S
C857        C955   1.522       .  S
C858        H865   1.087       .  S
C858        C859   1.360       .  D
C859        C860   1.537       .  S
C859        C911   1.479       .  S
C860        C864   1.546       .  S
C860        C862   1.547       .  S
C860        H866   1.106       .  S
C861        H867   1.084       .  S
C861        C862   1.370       .  D
C862        C887   1.503       .  S
C863        H868   1.082       .  S
C863        C864   1.367       .  D
C864        C939   1.479       .  S
C869        C870   1.209       .  T
C871        C872   1.404       .  A
C871        C876   1.392       .  A
C871        H877   1.083       .  S
C872        C873   1.403       .  A
C873        C874   1.406       .  A
C873        H878   1.085       .  S
C874        C875   1.408       .  A
C874        H879   1.082       .  S
C875        C876   1.402       .  A
C876        H880   1.084       .  S
C881        C882   1.210       .  T
C883        C884   1.403       .  A
C883        C888   1.400       .  A
C883        H889   1.084       .  S
C884        C885   1.399       .  A
C885        C886   1.398       .  A
C885        H890   1.082       .  S
C886        C887   1.413       .  A
C886        H891   1.079       .  S
C887        C888   1.409       .  A
C888        H892   1.077       .  S
C893        C894   1.211       .  T
C895        C896   1.411       .  A
C895        C900   1.397       .  A
C895        H901   1.081       .  S
C896        C897   1.406       .  A
C897        C898   1.396       .  A
C897        H902   1.080       .  S
C898        C899   1.402       .  A
C898        H903   1.083       .  S
C899        C900   1.399       .  A
C900        H904   1.083       .  S
C905        C906   1.210       .  T
C907        C908   1.402       .  A
C907        C912   1.397       .  A
C907        H913   1.084       .  S
C908        C909   1.406       .  A
C909        C910   1.400       .  A
C909        H914   1.083       .  S
C910        C911   1.403       .  A
C910        H915   1.084       .  S
C911        C912   1.404       .  A
C912        H916   1.082       .  S
C917        C918   1.205       .  T
C919        C920   1.211       .  T
C921        C922   1.208       .  T
C923        C924   1.401       .  A
C923        C928   1.390       .  A
C923        H929   1.083       .  S
C924        C925   1.400       .  A
C925        C926   1.400       .  A
C925        H930   1.082       .  S
C926        C927   1.411       .  A
C926        H931   1.083       .  S
C927        C928   1.408       .  A
C928        H932   1.077       .  S
C933        C934   1.207       .  T
C935        C936   1.407       .  A
C935        C940   1.400       .  A
C935        H941   1.081       .  S
C936        C937   1.412       .  A
C937        C938   1.396       .  A
C937        H942   1.080       .  S
C938        C939   1.398       .  A
C938        H943   1.083       .  S
C939        C940   1.404       .  A
C940        H944   1.083       .  S
C945        C946   1.205       .  T
C947        C948   1.207       .  T
C949        C950   1.208       .  T
C951        C952   1.403       .  A
C951        C956   1.388       .  A
C951        H957   1.083       .  S
C952        C953   1.405       .  A
C953        C954   1.404       .  A
C953        H958   1.083       .  S
C954        C955   1.411       .  A
C954        H959   1.078       .  S
C955        C956   1.406       .  A
C956        H960   1.084       .  S
C961        C962   1.206       .  T
C963        C964   1.204       .  T
C965        C966   1.207       .  T
C967        C968   1.206       .  T
C969        C970   1.205       .  T
C971        C972   1.210       .  T
C973        C974   1.209       .  T
C975        C976   1.204       .  T
C977        C978   1.208       .  T
C979        C980   1.406       .  A
C979        C984   1.406       .  A
C979        H985   1.081       .  S
C980        C981   1.403       .  A
C981        C982   1.389       .  A
C981        H986   1.085       .  S
C982        C983   1.402       .  A
C982       H1319   1.081       .  S
C983        C984   1.404       .  A
C984        H988   1.085       .  S
H987       C1314   1.081   1_554  S
C989        C990   1.203       .  T
C991        C992   1.204       .  T
C993        C994   1.210       .  T
C995        C996   1.209       .  T
O997       V1005   1.905       .  S
O997       C1007   1.264       .  A
O998       V2333   1.904       .  S
O998       C1008   1.264       .  A
O999       V1005   1.901       .  S
O999       C1009   1.263       .  A
O1000      V2333   1.901       .  S
O1000      C1010   1.262       .  A
O1001      V1006   1.907       .  S
O1001      C1010   1.265       .  A
O1002      V2334   1.909       .  S
O1002      C1009   1.265       .  A
O1003      V1006   1.891       .  S
O1003      C1008   1.260       .  A
O1004      V2334   1.891       .  S
O1004      C1007   1.260       .  A
V1005      O2326   1.904   1_455  S
V1005      O2328   1.901   1_455  S
V1005      V2334   2.090       .  T
V1006      O2330   1.909       .  S
V1006      O2332   1.891       .  S
V1006      V2333   2.090       .  T
C1007      C1323   1.431       .  S
C1008      C1322   1.431       .  S
C1009      C1325   1.442       .  S
C1010      C1327   1.440       .  S
C1011      C1012   1.527       .  S
C1011      C1017   1.531       .  S
C1011      C1015   1.527       .  S
C1011      C1308   1.463       .  S
C1012      H1019   1.087       .  S
C1012      C1013   1.361       .  D
C1013      C1014   1.546       .  S
C1013      C1309   1.445       .  S
C1014      C1018   1.545       .  S
C1014      C1016   1.543       .  S
C1014      H1020   1.111       .  S
C1015      H1021   1.086       .  S
C1015      C1016   1.364       .  D
C1016      C1312   1.481       .  S
C1017      H1022   1.086       .  S
C1017      C1018   1.367       .  D
C1018      C1328   1.446       .  S
O1023      V1031   1.903       .  S
O1023      C1033   1.263       .  A
O1024      C1034   1.261       .  A
O1025      V1031   1.904       .  S
O1025      C1035   1.264       .  A
O1026      C1036   1.265       .  A
O1027      C1036   1.263       .  A
O1028      V1032   1.903       .  S
O1028      C1035   1.263       .  A
O1029      C1034   1.264       .  A
O1030      V1032   1.906       .  S
O1030      C1033   1.265       .  A
V1031      V1032   2.090       .  T
C1033      C1305   1.441       .  S
C1034      C1302   1.433       .  S
C1035      C1310   1.440       .  S
C1036      C1304   1.442       .  S
O1037      C1047   1.262       .  A
O1038      V1045   1.897       .  S
O1038      C1048   1.261       .  A
O1039      C1049   1.264       .  A
O1040      V1045   1.903       .  S
O1040      C1050   1.264       .  A
O1041      V1046   1.896       .  S
O1041      C1050   1.261       .  A
O1042      C1049   1.261       .  A
O1043      V1046   1.900       .  S
O1043      C1048   1.264       .  A
O1044      C1047   1.264       .  A
V1045      V1046   2.091       .  T
C1047      C1297   1.436       .  S
C1048      C1295   1.432       .  S
C1049      C1300   1.435       .  S
C1050      C1294   1.435       .  S
C1051      C1052   1.529       .  S
C1051      C1057   1.537       .  S
C1051      C1055   1.527       .  S
C1051      C1299   1.467       .  S
C1052      H1059   1.087       .  S
C1052      C1053   1.362       .  D
C1053      C1054   1.539       .  S
C1053      C1321   1.437       .  S
C1054      C1058   1.538       .  S
C1054      C1056   1.542       .  S
C1054      H1060   1.111       .  S
C1055      H1061   1.086       .  S
C1055      C1056   1.366       .  D
C1056      C1284   1.485       .  S
C1057      H1062   1.086       .  S
C1057      C1058   1.368       .  D
C1058      C1282   1.445       .  S
O1063      C1073   1.265       .  A
O1064      V1071   1.911       .  S
O1064      C1074   1.266       .  A
O1065      C1075   1.261       .  A
O1066      V1071   1.895       .  S
O1066      C1076   1.261       .  A
O1067      V1072   1.905       .  S
O1067      C1076   1.264       .  A
O1068      C1075   1.264       .  A
O1069      V1072   1.895       .  S
O1069      C1074   1.261       .  A
O1070      C1073   1.261       .  A
V1071      V1072   2.091       .  T
C1073      C1280   1.438       .  S
C1074      C1281   1.439       .  S
C1075      C1307   1.431       .  S
C1076      C1278   1.434       .  S
C1077      C1078   1.532       .  S
C1077      C1083   1.532       .  S
C1077      C1081   1.527       .  S
C1077      C1301   1.465       .  S
C1078      H1085   1.087       .  S
C1078      C1079   1.362       .  D
C1079      C1080   1.539       .  S
C1079      C1266   1.443       .  S
C1080      C1084   1.541       .  S
C1080      C1082   1.550       .  S
C1080      H1086   1.109       .  S
C1081      H1087   1.085       .  S
C1081      C1082   1.368       .  D
C1082      C1268   1.496       .  S
C1083      H1088   1.087       .  S
C1083      C1084   1.365       .  D
C1084      C1279   1.444       .  S
C1089      C1090   1.531       .  S
C1089      C1095   1.531       .  S
C1089      C1093   1.525       .  S
C1089      C1296   1.463       .  S
C1090      H1097   1.087       .  S
C1090      C1091   1.366       .  D
C1091      C1092   1.542       .  S
C1091      C1253   1.445       .  S
C1092      C1096   1.542       .  S
C1092      C1094   1.539       .  S
C1092      H1098   1.111       .  S
C1093      H1099   1.088       .  S
C1093      C1094   1.361       .  D
C1094      C1256   1.475       .  S
C1095      H1100   1.087       .  S
C1095      C1096   1.365       .  D
C1096      C1277   1.440       .  S
O1101      V1109   1.904   1_455  S
O1101      C1111   1.264       .  A
O1102      V2437   1.906       .  S
O1102      C1112   1.264       .  A
O1103      V1109   1.901   1_455  S
O1103      C1113   1.263       .  A
O1104      V2437   1.898       .  S
O1104      C1114   1.262       .  A
O1105      V2438   1.909       .  S
O1105      C1114   1.265       .  A
O1106      V1110   1.911   1_455  S
O1106      C1113   1.266       .  A
O1107      V2438   1.897       .  S
O1107      C1112   1.261       .  A
O1108      V1110   1.895   1_455  S
O1108      C1111   1.261       .  A
V1109      O2430   1.906       .  S
V1109      O2432   1.898       .  S
V1109      V1110   2.090       .  T
V1110      O2433   1.909       .  S
V1110      O2435   1.897       .  S
C1111      C1249   1.433       .  S
C1112      C1265   1.437       .  S
C1113      C1252   1.444       .  S
C1114      C1254   1.440       .  S
C1115      C1116   1.531       .  S
C1115      C1121   1.530       .  S
C1115      C1119   1.534       .  S
C1115      C1324   1.465       .  S
C1116      H1123   1.086       .  S
C1116      C1117   1.364       .  D
C1117      C1118   1.546       .  S
C1117      C1237   1.448       .  S
C1118      C1122   1.542       .  S
C1118      C1120   1.541       .  S
C1118      H1124   1.111       .  S
C1119      H1125   1.086       .  S
C1119      C1120   1.367       .  D
C1120      C1240   1.481       .  S
C1121      H1126   1.087       .  S
C1121      C1122   1.362       .  D
C1122      C1306   1.447       .  S
C1127      C1128   1.538       .  S
C1127      C1133   1.534       .  S
C1127      C1131   1.529       .  S
C1127      C1303   1.475       .  S
C1128      H1135   1.086       .  S
C1128      C1129   1.368       .  D
C1129      C1130   1.538       .  S
C1129      C1251   1.450       .  S
C1130      C1134   1.541       .  S
C1130      C1132   1.548       .  S
C1130      H1136   1.109       .  S
C1131      H1137   1.085       .  S
C1131      C1132   1.368       .  D
C1132      C1228   1.492       .  S
C1133      H1138   1.087       .  S
C1133      C1134   1.364       .  D
C1134      C1225   1.450       .  S
C1139      C1140   1.534       .  S
C1139      C1145   1.529       .  S
C1139      C1143   1.535       .  S
C1139      C1250   1.466       .  S
C1140      H1147   1.087       .  S
C1140      C1141   1.364       .  D
C1141      C1142   1.542       .  S
C1141      C1214   1.449       .  S
C1142      C1146   1.541       .  S
C1142      C1144   1.542       .  S
C1142      H1148   1.111       .  S
C1143      H1149   1.086       .  S
C1143      C1144   1.367       .  D
C1144      C1216   1.482       .  S
C1145      H1150   1.087       .  S
C1145      C1146   1.361       .  D
C1146      C1293   1.441       .  S
C1151      C1152   1.536       .  S
C1151      C1157   1.529       .  S
C1151      C1155   1.526       .  S
C1151      C1298   1.469       .  S
C1152      H1159   1.086       .  S
C1152      C1153   1.367       .  D
C1153      C1154   1.541       .  S
C1153      C1326   1.448       .  S
C1154      C1158   1.547       .  S
C1154      C1156   1.544       .  S
C1154      H1160   1.111       .  S
C1155      H1161   1.088       .  S
C1155      C1156   1.363       .  D
C1156      C1204   1.480       .  S
C1157      H1162   1.087       .  S
C1157      C1158   1.365       .  D
C1158      C1202   1.447       .  S
O1163      V1171   1.911       .  S
O1163      C1173   1.266       .  A
O1164      C1174   1.266       .  A
O1165      V1171   1.899       .  S
O1165      C1175   1.262       .  A
O1166      C1176   1.262       .  A
O1167      C1176   1.266       .  A
O1168      V1172   1.910       .  S
O1168      C1175   1.266       .  A
O1169      C1174   1.261       .  A
O1170      V1172   1.900       .  S
O1170      C1173   1.262       .  A
V1171      V1172   2.089       .  T
C1173      C1213   1.443       .  S
C1174      C1238   1.442       .  S
C1175      C1201   1.441       .  S
C1176      C1226   1.444       .  S
C1177      C1178   1.527       .  S
C1177      C1183   1.538       .  S
C1177      C1181   1.540       .  S
C1177      C1259   1.524       .  S
C1178      H1185   1.087       .  S
C1178      C2175   1.363       .  D
C1179      C2174   1.363   1_456  D
C1179      C1231   1.475       .  S
C1180      C2512   1.538   1_455  S
C1180      H1186   1.110       .  S
C1181      H1187   1.086       .  S
C1181      C1846   1.370   1_565  D
C1182      C1845   1.370   1_455  D
C1182      C1207   1.485       .  S
C1183      H1188   1.083       .  S
C1184      C2508   1.538       .  S
C1184      C1315   1.478       .  S
C1189      C1190   1.533       .  S
C1189      C1195   1.536       .  S
C1189      C1193   1.538       .  S
C1189      C1287   1.522       .  S
C1190      H1197   1.087       .  S
C1190      C1191   1.360       .  D
C1191      C1192   1.537       .  S
C1191      C1243   1.479       .  S
C1192      C1196   1.546       .  S
C1192      C1194   1.547       .  S
C1192      H1198   1.106       .  S
C1193      H1199   1.084       .  S
C1193      C1194   1.370       .  D
C1194      C1219   1.503       .  S
C1195      H1200   1.082       .  S
C1195      C1196   1.367       .  D
C1196      C1271   1.479       .  S
C1201      C1202   1.209       .  T
C1203      C1204   1.404       .  A
C1203      C1208   1.392       .  A
C1203      H1209   1.083       .  S
C1204      C1205   1.403       .  A
C1205      C1206   1.406       .  A
C1205      H1210   1.085       .  S
C1206      C1207   1.408       .  A
C1206      H1211   1.082       .  S
C1207      C1208   1.402       .  A
C1208      H1212   1.084       .  S
C1213      C1214   1.210       .  T
C1215      C1216   1.403       .  A
C1215      C1220   1.400       .  A
C1215      H1221   1.084       .  S
C1216      C1217   1.399       .  A
C1217      C1218   1.398       .  A
C1217      H1222   1.082       .  S
C1218      C1219   1.413       .  A
C1218      H1223   1.079       .  S
C1219      C1220   1.409       .  A
C1220      H1224   1.077       .  S
C1225      C1226   1.211       .  T
C1227      C1228   1.411       .  A
C1227      C1232   1.397       .  A
C1227      H1233   1.081       .  S
C1228      C1229   1.406       .  A
C1229      C1230   1.396       .  A
C1229      H1234   1.080       .  S
C1230      C1231   1.402       .  A
C1230      H1235   1.083       .  S
C1231      C1232   1.399       .  A
C1232      H1236   1.083       .  S
C1237      C1238   1.210       .  T
C1239      C1240   1.402       .  A
C1239      C1244   1.397       .  A
C1239      H1245   1.084       .  S
C1240      C1241   1.406       .  A
C1241      C1242   1.400       .  A
C1241      H1246   1.083       .  S
C1242      C1243   1.403       .  A
C1242      H1247   1.084       .  S
C1243      C1244   1.404       .  A
C1244      H1248   1.082       .  S
C1249      C1250   1.205       .  T
C1251      C1252   1.211       .  T
C1253      C1254   1.208       .  T
C1255      C1256   1.401       .  A
C1255      C1260   1.390       .  A
C1255      H1261   1.083       .  S
C1256      C1257   1.400       .  A
C1257      C1258   1.400       .  A
C1257      H1262   1.082       .  S
C1258      C1259   1.411       .  A
C1258      H1263   1.083       .  S
C1259      C1260   1.408       .  A
C1260      H1264   1.077       .  S
C1265      C1266   1.207       .  T
C1267      C1268   1.407       .  A
C1267      C1272   1.400       .  A
C1267      H1273   1.081       .  S
C1268      C1269   1.412       .  A
C1269      C1270   1.396       .  A
C1269      H1274   1.080       .  S
C1270      C1271   1.398       .  A
C1270      H1275   1.083       .  S
C1271      C1272   1.404       .  A
C1272      H1276   1.083       .  S
C1277      C1278   1.205       .  T
C1279      C1280   1.207       .  T
C1281      C1282   1.208       .  T
C1283      C1284   1.403       .  A
C1283      C1288   1.388       .  A
C1283      H1289   1.083       .  S
C1284      C1285   1.405       .  A
C1285      C1286   1.404       .  A
C1285      H1290   1.083       .  S
C1286      C1287   1.411       .  A
C1286      H1291   1.078       .  S
C1287      C1288   1.406       .  A
C1288      H1292   1.084       .  S
C1293      C1294   1.206       .  T
C1295      C1296   1.204       .  T
C1297      C1298   1.207       .  T
C1299      C1300   1.206       .  T
C1301      C1302   1.205       .  T
C1303      C1304   1.210       .  T
C1305      C1306   1.209       .  T
C1307      C1308   1.204       .  T
C1309      C1310   1.208       .  T
C1311      C1312   1.406       .  A
C1311      C1316   1.406       .  A
C1311      H1317   1.081       .  S
C1312      C1313   1.403       .  A
C1313      C1314   1.389       .  A
C1313      H1318   1.085       .  S
C1314      C1315   1.402       .  A
C1315      C1316   1.404       .  A
C1316      H1320   1.085       .  S
C1321      C1322   1.203       .  T
C1323      C1324   1.204       .  T
C1325      C1326   1.210       .  T
C1327      C1328   1.209       .  T
O1329      V1337   1.905       .  S
O1329      C1339   1.264       .  A
O1330      C1340   1.264       .  A
O1331      V1337   1.901       .  S
O1331      C1341   1.263       .  A
O1332      C1342   1.262       .  A
O1333      V1338   1.907   1_655  S
O1333      C1342   1.265       .  A
O1334      C1341   1.265       .  A
O1335      V1338   1.891   1_655  S
O1335      C1340   1.260       .  A
O1336      C1339   1.260       .  A
C1339      C1655   1.431       .  S
C1340      C1654   1.431       .  S
C1341      C1657   1.442       .  S
C1342      C1659   1.440       .  S
C1343      C1344   1.527       .  S
C1343      C1349   1.531       .  S
C1343      C1347   1.527       .  S
C1343      C1640   1.463       .  S
C1344      H1351   1.087       .  S
C1344      C1345   1.361       .  D
C1345      C1346   1.546       .  S
C1345      C1641   1.445       .  S
C1346      C1350   1.545       .  S
C1346      C1348   1.543       .  S
C1346      H1352   1.111       .  S
C1347      H1353   1.086       .  S
C1347      C1348   1.364       .  D
C1348      C1644   1.481       .  S
C1349      H1354   1.086       .  S
C1349      C1350   1.367       .  D
C1350      C1660   1.446       .  S
O1355      V1363   1.903       .  S
O1355      C1365   1.263       .  A
O1356      V2027   1.897       .  S
O1356      C1366   1.261       .  A
O1357      V1363   1.904       .  S
O1357      C1367   1.264       .  A
O1358      V2027   1.906       .  S
O1358      C1368   1.265       .  A
O1359      V2028   1.904       .  S
O1359      C1368   1.263       .  A
O1360      V1364   1.903       .  S
O1360      C1367   1.263       .  A
O1361      V2028   1.901       .  S
O1361      C1366   1.264       .  A
O1362      V1364   1.906       .  S
O1362      C1365   1.265       .  A
V1363      O2020   1.897   1_545  S
V1363      O2022   1.906   1_545  S
V1363      V1364   2.090       .  T
V1364      O2023   1.904   1_545  S
V1364      O2025   1.901   1_545  S
C1365      C1637   1.441       .  S
C1366      C1634   1.433       .  S
C1367      C1642   1.440       .  S
C1368      C1636   1.442       .  S
O1369      V2041   1.899   1_545  S
O1369      C1379   1.262       .  A
O1370      V1377   1.897       .  S
O1370      C1380   1.261       .  A
O1371      V2041   1.902   1_545  S
O1371      C1381   1.264       .  A
O1372      V1377   1.903       .  S
O1372      C1382   1.264       .  A
O1373      V1378   1.896       .  S
O1373      C1382   1.261       .  A
O1374      V2042   1.899   1_545  S
O1374      C1381   1.261       .  A
O1375      V1378   1.900       .  S
O1375      C1380   1.264       .  A
O1376      V2042   1.904   1_545  S
O1376      C1379   1.264       .  A
V1377      O2033   1.899       .  S
V1377      O2035   1.902       .  S
V1377      V1378   2.091       .  T
V1378      O2038   1.899       .  S
V1378      O2040   1.904       .  S
C1379      C1629   1.436       .  S
C1380      C1627   1.432       .  S
C1381      C1632   1.435       .  S
C1382      C1626   1.435       .  S
C1383      C1384   1.529       .  S
C1383      C1389   1.537       .  S
C1383      C1387   1.527       .  S
C1383      C1631   1.467       .  S
C1384      H1391   1.087       .  S
C1384      C1385   1.362       .  D
C1385      C1386   1.539       .  S
C1385      C1653   1.437       .  S
C1386      C1390   1.538       .  S
C1386      C1388   1.542       .  S
C1386      H1392   1.111       .  S
C1387      H1393   1.086       .  S
C1387      C1388   1.366       .  D
C1388      C1616   1.485       .  S
C1389      H1394   1.086       .  S
C1389      C1390   1.368       .  D
C1390      C1614   1.445       .  S
O1395      V1735   1.910       .  S
O1395      C1405   1.265       .  A
O1396      V1403   1.911       .  S
O1396      C1406   1.266       .  A
O1397      V1735   1.893       .  S
O1397      C1407   1.261       .  A
O1398      V1403   1.895       .  S
O1398      C1408   1.261       .  A
O1399      V1404   1.905       .  S
O1399      C1408   1.264       .  A
O1400      V1736   1.903       .  S
O1400      C1407   1.264       .  A
O1401      V1404   1.895       .  S
O1401      C1406   1.261       .  A
O1402      V1736   1.894       .  S
O1402      C1405   1.261       .  A
V1403      O1727   1.910   1_554  S
V1403      O1729   1.893   1_554  S
V1403      V1404   2.091       .  T
V1404      O1732   1.903   1_554  S
V1404      O1734   1.894   1_554  S
C1405      C1612   1.438       .  S
C1406      C1613   1.439       .  S
C1407      C1639   1.431       .  S
C1408      C1610   1.434       .  S
C1409      C1410   1.532       .  S
C1409      C1415   1.532       .  S
C1409      C1413   1.527       .  S
C1409      C1633   1.465       .  S
C1410      H1417   1.087       .  S
C1410      C1411   1.362       .  D
C1411      C1412   1.539       .  S
C1411      C1598   1.443       .  S
C1412      C1416   1.541       .  S
C1412      C1414   1.550       .  S
C1412      H1418   1.109       .  S
C1413      H1419   1.085       .  S
C1413      C1414   1.368       .  D
C1414      C1600   1.496       .  S
C1415      H1420   1.087       .  S
C1415      C1416   1.365       .  D
C1416      C1611   1.444       .  S
C1421      C1422   1.531       .  S
C1421      C1427   1.531       .  S
C1421      C1425   1.525       .  S
C1421      C1628   1.463       .  S
C1422      H1429   1.087       .  S
C1422      C1423   1.366       .  D
C1423      C1424   1.542       .  S
C1423      C1585   1.445       .  S
C1424      C1428   1.542       .  S
C1424      C1426   1.539       .  S
C1424      H1430   1.111       .  S
C1425      H1431   1.088       .  S
C1425      C1426   1.361       .  D
C1426      C1588   1.475       .  S
C1427      H1432   1.087       .  S
C1427      C1428   1.365       .  D
C1428      C1609   1.440       .  S
O1433      V1441   1.904       .  S
O1433      C1443   1.264       .  A
O1434      C1444   1.264       .  A
O1435      V1441   1.901       .  S
O1435      C1445   1.263       .  A
O1436      C1446   1.262       .  A
O1437      C1446   1.265       .  A
O1438      V1442   1.911       .  S
O1438      C1445   1.266       .  A
O1439      C1444   1.261       .  A
O1440      V1442   1.895       .  S
O1440      C1443   1.261       .  A
V1441      V1442   2.090       .  T
C1443      C1581   1.433       .  S
C1444      C1597   1.437       .  S
C1445      C1584   1.444       .  S
C1446      C1586   1.440       .  S
C1447      C1448   1.531       .  S
C1447      C1453   1.530       .  S
C1447      C1451   1.534       .  S
C1447      C1656   1.465       .  S
C1448      H1455   1.086       .  S
C1448      C1449   1.364       .  D
C1449      C1450   1.546       .  S
C1449      C1569   1.448       .  S
C1450      C1454   1.542       .  S
C1450      C1452   1.541       .  S
C1450      H1456   1.111       .  S
C1451      H1457   1.086       .  S
C1451      C1452   1.367       .  D
C1452      C1572   1.481       .  S
C1453      H1458   1.087       .  S
C1453      C1454   1.362       .  D
C1454      C1638   1.447       .  S
C1459      C1460   1.538       .  S
C1459      C1465   1.534       .  S
C1459      C1463   1.529       .  S
C1459      C1635   1.475       .  S
C1460      H1467   1.086       .  S
C1460      C1461   1.368       .  D
C1461      C1462   1.538       .  S
C1461      C1583   1.450       .  S
C1462      C1466   1.541       .  S
C1462      C1464   1.548       .  S
C1462      H1468   1.109       .  S
C1463      H1469   1.085       .  S
C1463      C1464   1.368       .  D
C1464      C1560   1.492       .  S
C1465      H1470   1.087       .  S
C1465      C1466   1.364       .  D
C1466      C1557   1.450       .  S
C1471      C1472   1.534       .  S
C1471      C1477   1.529       .  S
C1471      C1475   1.535       .  S
C1471      C1582   1.466       .  S
C1472      H1479   1.087       .  S
C1472      C1473   1.364       .  D
C1473      C1474   1.542       .  S
C1473      C1546   1.449       .  S
C1474      C1478   1.541       .  S
C1474      C1476   1.542       .  S
C1474      H1480   1.111       .  S
C1475      H1481   1.086       .  S
C1475      C1476   1.367       .  D
C1476      C1548   1.482       .  S
C1477      H1482   1.087       .  S
C1477      C1478   1.361       .  D
C1478      C1625   1.441       .  S
C1483      C1484   1.536       .  S
C1483      C1489   1.529       .  S
C1483      C1487   1.526       .  S
C1483      C1630   1.469       .  S
C1484      H1491   1.086       .  S
C1484      C1485   1.367       .  D
C1485      C1486   1.541       .  S
C1485      C1658   1.448       .  S
C1486      C1490   1.547       .  S
C1486      C1488   1.544       .  S
C1486      H1492   1.111       .  S
C1487      H1493   1.088       .  S
C1487      C1488   1.363       .  D
C1488      C1536   1.480       .  S
C1489      H1494   1.087       .  S
C1489      C1490   1.365       .  D
C1490      C1534   1.447       .  S
O1495      V1503   1.911   1_554  S
O1495      C1505   1.266       .  A
O1496      V1835   1.911       .  S
O1496      C1506   1.266       .  A
O1497      V1503   1.899   1_554  S
O1497      C1507   1.262       .  A
O1498      V1835   1.900       .  S
O1498      C1508   1.262       .  A
O1499      V1836   1.912       .  S
O1499      C1508   1.266       .  A
O1500      V1504   1.910       .  S
O1500      C1507   1.266       .  A
O1501      V1836   1.898       .  S
O1501      C1506   1.261       .  A
O1502      V1504   1.900       .  S
O1502      C1505   1.262       .  A
V1503      O1828   1.911       .  S
V1503      O1830   1.900       .  S
V1503      V1504   2.089   1_556  T
V1504      O1831   1.912   1_554  S
V1504      O1833   1.898   1_554  S
C1505      C1545   1.443       .  S
C1506      C1570   1.442       .  S
C1507      C1533   1.441       .  S
C1508      C1558   1.444       .  S
C1509      C1510   1.527       .  S
C1509      C1515   1.538       .  S
C1509      C1513   1.540       .  S
C1509      C1591   1.524       .  S
C1510      H1517   1.086       .  S
C1511      C2176   1.542       .  S
C1511      C1563   1.475       .  S
C1512      C2175   1.542   1_545  S
C1512      C1846   1.540       .  S
C1512      H1518   1.110       .  S
C1513      H1519   1.086       .  S
C1514      C1844   1.540   1_554  S
C1514      C1539   1.485       .  S
C1515      H1520   1.083   1_554  S
C1515      C2512   1.363   1_554  D
C1516      C2511   1.363   1_545  D
C1516      C1647   1.478       .  S
C1521      C1522   1.533       .  S
C1521      C1527   1.536       .  S
C1521      C1525   1.538       .  S
C1521      C1619   1.522       .  S
C1522      H1529   1.087       .  S
C1522      C1523   1.360       .  D
C1523      C1524   1.537       .  S
C1523      C1575   1.479       .  S
C1524      C1528   1.546       .  S
C1524      C1526   1.547       .  S
C1524      H1530   1.106       .  S
C1525      H1531   1.084       .  S
C1525      C1526   1.370       .  D
C1526      C1551   1.503       .  S
C1527      H1532   1.082       .  S
C1527      C1528   1.367       .  D
C1528      C1603   1.479       .  S
C1533      C1534   1.209       .  T
C1535      C1536   1.404       .  A
C1535      C1540   1.392       .  A
C1535      H1541   1.083       .  S
C1536      C1537   1.403       .  A
C1537      C1538   1.406       .  A
C1537      H1542   1.085       .  S
C1538      C1539   1.408       .  A
C1538      H1543   1.081       .  S
C1539      C1540   1.402       .  A
C1540      H1544   1.084   1_545  S
C1545      C1546   1.210       .  T
C1547      C1548   1.403       .  A
C1547      C1552   1.400       .  A
C1547      H1553   1.084       .  S
C1548      C1549   1.399       .  A
C1549      C1550   1.398       .  A
C1549      H1554   1.082       .  S
C1550      C1551   1.413       .  A
C1550      H1555   1.079       .  S
C1551      C1552   1.409       .  A
C1552      H1556   1.077       .  S
C1557      C1558   1.211       .  T
C1559      C1560   1.411       .  A
C1559      C1564   1.397       .  A
C1559      H1565   1.081       .  S
C1560      C1561   1.406       .  A
C1561      C1562   1.396       .  A
C1561      H1566   1.080       .  S
C1562      C1563   1.402       .  A
C1562      H1567   1.083       .  S
C1563      C1564   1.399       .  A
C1564      H1568   1.083       .  S
C1569      C1570   1.210       .  T
C1571      C1572   1.402       .  A
C1571      C1576   1.397       .  A
C1571      H1577   1.084       .  S
C1572      C1573   1.406       .  A
C1573      C1574   1.400       .  A
C1573      H1578   1.083       .  S
C1574      C1575   1.403       .  A
C1574      H1579   1.084       .  S
C1575      C1576   1.404       .  A
C1576      H1580   1.082       .  S
C1581      C1582   1.205       .  T
C1583      C1584   1.211       .  T
C1585      C1586   1.208       .  T
C1587      C1588   1.401       .  A
C1587      C1592   1.390       .  A
C1587      H1593   1.083       .  S
C1588      C1589   1.400       .  A
C1589      C1590   1.400       .  A
C1589      H1594   1.082       .  S
C1590      C1591   1.411       .  A
C1590      H1595   1.083       .  S
C1591      C1592   1.408       .  A
C1592      H1596   1.077       .  S
C1597      C1598   1.207       .  T
C1599      C1600   1.407       .  A
C1599      C1604   1.400       .  A
C1599      H1605   1.081       .  S
C1600      C1601   1.412       .  A
C1601      C1602   1.396       .  A
C1601      H1606   1.080       .  S
C1602      C1603   1.398       .  A
C1602      H1607   1.083       .  S
C1603      C1604   1.404       .  A
C1604      H1608   1.083       .  S
C1609      C1610   1.205       .  T
C1611      C1612   1.207       .  T
C1613      C1614   1.208       .  T
C1615      C1616   1.403       .  A
C1615      C1620   1.388       .  A
C1615      H1621   1.083       .  S
C1616      C1617   1.405       .  A
C1617      C1618   1.404       .  A
C1617      H1622   1.083       .  S
C1618      C1619   1.411       .  A
C1618      H1623   1.078       .  S
C1619      C1620   1.406       .  A
C1620      H1624   1.084       .  S
C1625      C1626   1.206       .  T
C1627      C1628   1.204       .  T
C1629      C1630   1.207       .  T
C1631      C1632   1.206       .  T
C1633      C1634   1.205       .  T
C1635      C1636   1.210       .  T
C1637      C1638   1.209       .  T
C1639      C1640   1.204       .  T
C1641      C1642   1.208       .  T
C1643      C1644   1.406       .  A
C1643      C1648   1.406       .  A
C1643      H1649   1.081       .  S
C1644      C1645   1.403       .  A
C1645      C1646   1.389       .  A
C1645      H1650   1.085       .  S
C1646      C1647   1.402       .  A
C1646      H1983   1.081       .  S
C1647      C1648   1.404       .  A
C1648      H1652   1.085       .  S
H1651      C1978   1.081   1_554  S
C1653      C1654   1.203       .  T
C1655      C1656   1.204       .  T
C1657      C1658   1.210       .  T
C1659      C1660   1.209       .  T
O1661      V1669   1.905       .  S
O1661      C1671   1.264       .  A
O1662      C1672   1.264       .  A
O1663      V1669   1.901       .  S
O1663      C1673   1.263       .  A
O1664      C1674   1.262       .  A
O1665      V1670   1.907   1_655  S
O1665      C1674   1.265       .  A
O1666      C1673   1.265       .  A
O1667      V1670   1.891   1_655  S
O1667      C1672   1.260       .  A
O1668      C1671   1.260       .  A
C1671      C1987   1.431       .  S
C1672      C1986   1.431       .  S
C1673      C1989   1.442       .  S
C1674      C1991   1.440       .  S
C1675      C1676   1.527       .  S
C1675      C1681   1.531       .  S
C1675      C1679   1.527       .  S
C1675      C1972   1.463       .  S
C1676      H1683   1.087       .  S
C1676      C1677   1.361       .  D
C1677      C1678   1.546       .  S
C1677      C1973   1.445       .  S
C1678      C1682   1.545       .  S
C1678      C1680   1.543       .  S
C1678      H1684   1.111       .  S
C1679      H1685   1.086       .  S
C1679      C1680   1.364       .  D
C1680      C1976   1.481       .  S
C1681      H1686   1.086       .  S
C1681      C1682   1.367       .  D
C1682      C1992   1.446       .  S
O1687      V1695   1.903       .  S
O1687      C1697   1.263       .  A
O1688      V2359   1.897       .  S
O1688      C1698   1.261       .  A
O1689      V1695   1.904       .  S
O1689      C1699   1.264       .  A
O1690      V2359   1.906       .  S
O1690      C1700   1.265       .  A
O1691      V2360   1.904       .  S
O1691      C1700   1.263       .  A
O1692      V1696   1.903       .  S
O1692      C1699   1.263       .  A
O1693      V2360   1.901       .  S
O1693      C1698   1.264       .  A
O1694      V1696   1.906       .  S
O1694      C1697   1.265       .  A
V1695      O2352   1.897   1_545  S
V1695      O2354   1.906   1_545  S
V1695      V1696   2.090       .  T
V1696      O2355   1.904   1_545  S
V1696      O2357   1.901   1_545  S
C1697      C1969   1.441       .  S
C1698      C1966   1.433       .  S
C1699      C1974   1.440       .  S
C1700      C1968   1.442       .  S
O1701      V2373   1.899   1_545  S
O1701      C1711   1.262       .  A
O1702      V1709   1.897       .  S
O1702      C1712   1.261       .  A
O1703      V2373   1.902   1_545  S
O1703      C1713   1.264       .  A
O1704      V1709   1.903       .  S
O1704      C1714   1.264       .  A
O1705      V1710   1.896       .  S
O1705      C1714   1.261       .  A
O1706      V2374   1.899   1_545  S
O1706      C1713   1.261       .  A
O1707      V1710   1.900       .  S
O1707      C1712   1.264       .  A
O1708      V2374   1.904   1_545  S
O1708      C1711   1.264       .  A
V1709      O2365   1.899       .  S
V1709      O2367   1.902       .  S
V1709      V1710   2.091       .  T
V1710      O2370   1.899       .  S
V1710      O2372   1.904       .  S
C1711      C1961   1.436       .  S
C1712      C1959   1.432       .  S
C1713      C1964   1.435       .  S
C1714      C1958   1.435       .  S
C1715      C1716   1.529       .  S
C1715      C1721   1.537       .  S
C1715      C1719   1.527       .  S
C1715      C1963   1.467       .  S
C1716      H1723   1.087       .  S
C1716      C1717   1.362       .  D
C1717      C1718   1.539       .  S
C1717      C1985   1.437       .  S
C1718      C1722   1.538       .  S
C1718      C1720   1.542       .  S
C1718      H1724   1.111       .  S
C1719      H1725   1.086       .  S
C1719      C1720   1.366       .  D
C1720      C1948   1.485       .  S
C1721      H1726   1.086       .  S
C1721      C1722   1.368       .  D
C1722      C1946   1.445       .  S
O1727      C1737   1.265       .  A
O1728      V1735   1.911       .  S
O1728      C1738   1.266       .  A
O1729      C1739   1.261       .  A
O1730      V1735   1.895       .  S
O1730      C1740   1.261       .  A
O1731      V1736   1.905       .  S
O1731      C1740   1.264       .  A
O1732      C1739   1.264       .  A
O1733      V1736   1.895       .  S
O1733      C1738   1.261       .  A
O1734      C1737   1.261       .  A
V1735      V1736   2.091       .  T
C1737      C1944   1.438       .  S
C1738      C1945   1.439       .  S
C1739      C1971   1.431       .  S
C1740      C1942   1.434       .  S
C1741      C1742   1.532       .  S
C1741      C1747   1.532       .  S
C1741      C1745   1.527       .  S
C1741      C1965   1.465       .  S
C1742      H1749   1.087       .  S
C1742      C1743   1.362       .  D
C1743      C1744   1.539       .  S
C1743      C1930   1.443       .  S
C1744      C1748   1.541       .  S
C1744      C1746   1.550       .  S
C1744      H1750   1.109       .  S
C1745      H1751   1.085       .  S
C1745      C1746   1.368       .  D
C1746      C1932   1.496       .  S
C1747      H1752   1.087       .  S
C1747      C1748   1.365       .  D
C1748      C1943   1.444       .  S
C1753      C1754   1.531       .  S
C1753      C1759   1.531       .  S
C1753      C1757   1.525       .  S
C1753      C1960   1.463       .  S
C1754      H1761   1.087       .  S
C1754      C1755   1.366       .  D
C1755      C1756   1.542       .  S
C1755      C1917   1.445       .  S
C1756      C1760   1.542       .  S
C1756      C1758   1.539       .  S
C1756      H1762   1.111       .  S
C1757      H1763   1.088       .  S
C1757      C1758   1.361       .  D
C1758      C1920   1.475       .  S
C1759      H1764   1.087       .  S
C1759      C1760   1.365       .  D
C1760      C1941   1.440       .  S
O1765      V1773   1.904       .  S
O1765      C1775   1.264       .  A
O1766      C1776   1.264       .  A
O1767      V1773   1.901       .  S
O1767      C1777   1.263       .  A
O1768      C1778   1.262       .  A
O1769      C1778   1.265       .  A
O1770      V1774   1.911       .  S
O1770      C1777   1.266       .  A
O1771      C1776   1.261       .  A
O1772      V1774   1.895       .  S
O1772      C1775   1.261       .  A
V1773      V1774   2.090       .  T
C1775      C1913   1.433       .  S
C1776      C1929   1.437       .  S
C1777      C1916   1.444       .  S
C1778      C1918   1.440       .  S
C1779      C1780   1.531       .  S
C1779      C1785   1.530       .  S
C1779      C1783   1.534       .  S
C1779      C1988   1.465       .  S
C1780      H1787   1.086       .  S
C1780      C1781   1.364       .  D
C1781      C1782   1.546       .  S
C1781      C1901   1.448       .  S
C1782      C1786   1.542       .  S
C1782      C1784   1.541       .  S
C1782      H1788   1.111       .  S
C1783      H1789   1.086       .  S
C1783      C1784   1.367       .  D
C1784      C1904   1.481       .  S
C1785      H1790   1.087       .  S
C1785      C1786   1.362       .  D
C1786      C1970   1.447       .  S
C1791      C1792   1.538       .  S
C1791      C1797   1.534       .  S
C1791      C1795   1.529       .  S
C1791      C1967   1.475       .  S
C1792      H1799   1.086       .  S
C1792      C1793   1.368       .  D
C1793      C1794   1.538       .  S
C1793      C1915   1.450       .  S
C1794      C1798   1.541       .  S
C1794      C1796   1.548       .  S
C1794      H1800   1.109       .  S
C1795      H1801   1.085       .  S
C1795      C1796   1.368       .  D
C1796      C1892   1.492       .  S
C1797      H1802   1.087       .  S
C1797      C1798   1.364       .  D
C1798      C1889   1.450       .  S
C1803      C1804   1.534       .  S
C1803      C1809   1.529       .  S
C1803      C1807   1.535       .  S
C1803      C1914   1.466       .  S
C1804      H1811   1.087       .  S
C1804      C1805   1.364       .  D
C1805      C1806   1.542       .  S
C1805      C1878   1.449       .  S
C1806      C1810   1.541       .  S
C1806      C1808   1.542       .  S
C1806      H1812   1.111       .  S
C1807      H1813   1.086       .  S
C1807      C1808   1.367       .  D
C1808      C1880   1.482       .  S
C1809      H1814   1.087       .  S
C1809      C1810   1.361       .  D
C1810      C1957   1.441       .  S
C1815      C1816   1.536       .  S
C1815      C1821   1.529       .  S
C1815      C1819   1.526       .  S
C1815      C1962   1.469       .  S
C1816      H1823   1.086       .  S
C1816      C1817   1.367       .  D
C1817      C1818   1.541       .  S
C1817      C1990   1.448       .  S
C1818      C1822   1.547       .  S
C1818      C1820   1.544       .  S
C1818      H1824   1.111       .  S
C1819      H1825   1.088       .  S
C1819      C1820   1.363       .  D
C1820      C1868   1.480       .  S
C1821      H1826   1.087       .  S
C1821      C1822   1.365       .  D
C1822      C1866   1.447       .  S
O1827      V1835   1.911       .  S
O1827      C1837   1.266       .  A
O1828      C1838   1.266       .  A
O1829      V1835   1.899       .  S
O1829      C1839   1.262       .  A
O1830      C1840   1.262       .  A
O1831      C1840   1.266       .  A
O1832      V1836   1.910       .  S
O1832      C1839   1.266       .  A
O1833      C1838   1.261       .  A
O1834      V1836   1.900       .  S
O1834      C1837   1.262       .  A
V1835      V1836   2.089       .  T
C1837      C1877   1.443       .  S
C1838      C1902   1.442       .  S
C1839      C1865   1.441       .  S
C1840      C1890   1.444       .  S
C1841      C1842   1.527       .  S
C1841      C1847   1.538       .  S
C1841      C1845   1.540       .  S
C1841      C1923   1.524       .  S
C1842      H1849   1.086       .  S
C1843      C2508   1.542       .  S
C1843      C1895   1.475       .  S
C1844      C2507   1.542   1_545  S
C1844      H1850   1.110       .  S
C1845      H1851   1.086       .  S
C1846      C1871   1.485       .  S
C1847      H1852   1.083       .  S
C1847      C2180   1.363       .  D
C1848      C2179   1.363   1_546  D
C1848      C1979   1.478       .  S
C1853      C1854   1.533       .  S
C1853      C1859   1.536       .  S
C1853      C1857   1.538       .  S
C1853      C1951   1.522       .  S
C1854      H1861   1.087       .  S
C1854      C1855   1.360       .  D
C1855      C1856   1.537       .  S
C1855      C1907   1.479       .  S
C1856      C1860   1.546       .  S
C1856      C1858   1.547       .  S
C1856      H1862   1.106       .  S
C1857      H1863   1.084       .  S
C1857      C1858   1.370       .  D
C1858      C1883   1.503       .  S
C1859      H1864   1.082       .  S
C1859      C1860   1.367       .  D
C1860      C1935   1.479       .  S
C1865      C1866   1.209       .  T
C1867      C1868   1.404       .  A
C1867      C1872   1.392       .  A
C1867      H1873   1.083       .  S
C1868      C1869   1.403       .  A
C1869      C1870   1.406       .  A
C1869      H1874   1.085       .  S
C1870      C1871   1.408       .  A
C1870      H1875   1.082       .  S
C1871      C1872   1.402       .  A
C1872      H1876   1.084   1_545  S
C1877      C1878   1.210       .  T
C1879      C1880   1.403       .  A
C1879      C1884   1.400       .  A
C1879      H1885   1.084       .  S
C1880      C1881   1.399       .  A
C1881      C1882   1.398       .  A
C1881      H1886   1.082       .  S
C1882      C1883   1.413       .  A
C1882      H1887   1.079       .  S
C1883      C1884   1.409       .  A
C1884      H1888   1.077       .  S
C1889      C1890   1.211       .  T
C1891      C1892   1.411       .  A
C1891      C1896   1.397       .  A
C1891      H1897   1.081       .  S
C1892      C1893   1.406       .  A
C1893      C1894   1.396       .  A
C1893      H1898   1.080       .  S
C1894      C1895   1.402       .  A
C1894      H1899   1.083       .  S
C1895      C1896   1.399       .  A
C1896      H1900   1.083       .  S
C1901      C1902   1.210       .  T
C1903      C1904   1.402       .  A
C1903      C1908   1.397       .  A
C1903      H1909   1.084       .  S
C1904      C1905   1.406       .  A
C1905      C1906   1.400       .  A
C1905      H1910   1.083       .  S
C1906      C1907   1.403       .  A
C1906      H1911   1.084       .  S
C1907      C1908   1.404       .  A
C1908      H1912   1.082       .  S
C1913      C1914   1.205       .  T
C1915      C1916   1.211       .  T
C1917      C1918   1.208       .  T
C1919      C1920   1.401       .  A
C1919      C1924   1.390       .  A
C1919      H1925   1.083       .  S
C1920      C1921   1.400       .  A
C1921      C1922   1.400       .  A
C1921      H1926   1.082       .  S
C1922      C1923   1.411       .  A
C1922      H1927   1.083       .  S
C1923      C1924   1.408       .  A
C1924      H1928   1.077       .  S
C1929      C1930   1.207       .  T
C1931      C1932   1.407       .  A
C1931      C1936   1.400       .  A
C1931      H1937   1.081       .  S
C1932      C1933   1.412       .  A
C1933      C1934   1.396       .  A
C1933      H1938   1.080       .  S
C1934      C1935   1.398       .  A
C1934      H1939   1.083       .  S
C1935      C1936   1.404       .  A
C1936      H1940   1.083       .  S
C1941      C1942   1.205       .  T
C1943      C1944   1.207       .  T
C1945      C1946   1.208       .  T
C1947      C1948   1.403       .  A
C1947      C1952   1.388       .  A
C1947      H1953   1.083       .  S
C1948      C1949   1.405       .  A
C1949      C1950   1.404       .  A
C1949      H1954   1.083       .  S
C1950      C1951   1.411       .  A
C1950      H1955   1.078       .  S
C1951      C1952   1.406       .  A
C1952      H1956   1.084       .  S
C1957      C1958   1.206       .  T
C1959      C1960   1.204       .  T
C1961      C1962   1.207       .  T
C1963      C1964   1.206       .  T
C1965      C1966   1.205       .  T
C1967      C1968   1.210       .  T
C1969      C1970   1.209       .  T
C1971      C1972   1.204       .  T
C1973      C1974   1.208       .  T
C1975      C1976   1.406       .  A
C1975      C1980   1.406       .  A
C1975      H1981   1.081       .  S
C1976      C1977   1.403       .  A
C1977      C1978   1.389       .  A
C1977      H1982   1.085       .  S
C1978      C1979   1.402       .  A
C1979      C1980   1.404       .  A
C1980      H1984   1.085       .  S
C1985      C1986   1.203       .  T
C1987      C1988   1.204       .  T
C1989      C1990   1.210       .  T
C1991      C1992   1.209       .  T
O1993      V2001   1.905       .  S
O1993      C2003   1.264       .  A
O1994      C2004   1.264       .  A
O1995      V2001   1.901       .  S
O1995      C2005   1.263       .  A
O1996      C2006   1.262       .  A
O1997      V2002   1.907   1_655  S
O1997      C2006   1.265       .  A
O1998      C2005   1.265       .  A
O1999      V2002   1.891   1_655  S
O1999      C2004   1.260       .  A
O2000      C2003   1.260       .  A
C2003      C2319   1.431       .  S
C2004      C2318   1.431       .  S
C2005      C2321   1.442       .  S
C2006      C2323   1.440       .  S
C2007      C2008   1.527       .  S
C2007      C2013   1.531       .  S
C2007      C2011   1.527       .  S
C2007      C2304   1.463       .  S
C2008      H2015   1.087       .  S
C2008      C2009   1.361       .  D
C2009      C2010   1.546       .  S
C2009      C2305   1.445       .  S
C2010      C2014   1.545       .  S
C2010      C2012   1.543       .  S
C2010      H2016   1.111       .  S
C2011      H2017   1.086       .  S
C2011      C2012   1.364       .  D
C2012      C2308   1.481       .  S
C2013      H2018   1.086       .  S
C2013      C2014   1.367       .  D
C2014      C2324   1.446       .  S
O2019      V2027   1.903       .  S
O2019      C2029   1.263       .  A
O2020      C2030   1.261       .  A
O2021      V2027   1.904       .  S
O2021      C2031   1.264       .  A
O2022      C2032   1.265       .  A
O2023      C2032   1.263       .  A
O2024      V2028   1.903       .  S
O2024      C2031   1.263       .  A
O2025      C2030   1.264       .  A
O2026      V2028   1.906       .  S
O2026      C2029   1.265       .  A
V2027      V2028   2.090       .  T
C2029      C2301   1.441       .  S
C2030      C2298   1.433       .  S
C2031      C2306   1.440       .  S
C2032      C2300   1.442       .  S
O2033      C2043   1.262       .  A
O2034      V2041   1.897       .  S
O2034      C2044   1.261       .  A
O2035      C2045   1.264       .  A
O2036      V2041   1.903       .  S
O2036      C2046   1.264       .  A
O2037      V2042   1.896       .  S
O2037      C2046   1.261       .  A
O2038      C2045   1.261       .  A
O2039      V2042   1.900       .  S
O2039      C2044   1.264       .  A
O2040      C2043   1.264       .  A
V2041      V2042   2.091       .  T
C2043      C2293   1.436       .  S
C2044      C2291   1.432       .  S
C2045      C2296   1.435       .  S
C2046      C2290   1.435       .  S
C2047      C2048   1.529       .  S
C2047      C2053   1.537       .  S
C2047      C2051   1.527       .  S
C2047      C2295   1.467       .  S
C2048      H2055   1.087       .  S
C2048      C2049   1.362       .  D
C2049      C2050   1.539       .  S
C2049      C2317   1.437       .  S
C2050      C2054   1.538       .  S
C2050      C2052   1.542       .  S
C2050      H2056   1.111       .  S
C2051      H2057   1.086       .  S
C2051      C2052   1.366       .  D
C2052      C2280   1.485       .  S
C2053      H2058   1.086       .  S
C2053      C2054   1.368       .  D
C2054      C2278   1.445       .  S
O2059      V2399   1.910       .  S
O2059      C2069   1.265       .  A
O2060      V2067   1.911       .  S
O2060      C2070   1.266       .  A
O2061      V2399   1.893       .  S
O2061      C2071   1.261       .  A
O2062      V2067   1.895       .  S
O2062      C2072   1.261       .  A
O2063      V2068   1.905       .  S
O2063      C2072   1.264       .  A
O2064      V2400   1.903       .  S
O2064      C2071   1.264       .  A
O2065      V2068   1.895       .  S
O2065      C2070   1.261       .  A
O2066      V2400   1.894       .  S
O2066      C2069   1.261       .  A
V2067      O2391   1.910   1_554  S
V2067      O2393   1.893   1_554  S
V2067      V2068   2.091       .  T
V2068      O2396   1.903   1_554  S
V2068      O2398   1.894   1_554  S
C2069      C2276   1.438       .  S
C2070      C2277   1.439       .  S
C2071      C2303   1.431       .  S
C2072      C2274   1.434       .  S
C2073      C2074   1.532       .  S
C2073      C2079   1.532       .  S
C2073      C2077   1.527       .  S
C2073      C2297   1.465       .  S
C2074      H2081   1.087       .  S
C2074      C2075   1.362       .  D
C2075      C2076   1.539       .  S
C2075      C2262   1.443       .  S
C2076      C2080   1.541       .  S
C2076      C2078   1.550       .  S
C2076      H2082   1.109       .  S
C2077      H2083   1.085       .  S
C2077      C2078   1.368       .  D
C2078      C2264   1.496       .  S
C2079      H2084   1.087       .  S
C2079      C2080   1.365       .  D
C2080      C2275   1.444       .  S
C2085      C2086   1.531       .  S
C2085      C2091   1.531       .  S
C2085      C2089   1.525       .  S
C2085      C2292   1.463       .  S
C2086      H2093   1.087       .  S
C2086      C2087   1.366       .  D
C2087      C2088   1.542       .  S
C2087      C2249   1.445       .  S
C2088      C2092   1.542       .  S
C2088      C2090   1.539       .  S
C2088      H2094   1.111       .  S
C2089      H2095   1.088       .  S
C2089      C2090   1.361       .  D
C2090      C2252   1.475       .  S
C2091      H2096   1.087       .  S
C2091      C2092   1.365       .  D
C2092      C2273   1.440       .  S
O2097      V2105   1.904       .  S
O2097      C2107   1.264       .  A
O2098      C2108   1.264       .  A
O2099      V2105   1.901       .  S
O2099      C2109   1.263       .  A
O2100      C2110   1.262       .  A
O2101      C2110   1.265       .  A
O2102      V2106   1.911       .  S
O2102      C2109   1.266       .  A
O2103      C2108   1.261       .  A
O2104      V2106   1.895       .  S
O2104      C2107   1.261       .  A
V2105      V2106   2.090       .  T
C2107      C2245   1.433       .  S
C2108      C2261   1.437       .  S
C2109      C2248   1.444       .  S
C2110      C2250   1.440       .  S
C2111      C2112   1.531       .  S
C2111      C2117   1.530       .  S
C2111      C2115   1.534       .  S
C2111      C2320   1.465       .  S
C2112      H2119   1.086       .  S
C2112      C2113   1.364       .  D
C2113      C2114   1.546       .  S
C2113      C2233   1.448       .  S
C2114      C2118   1.542       .  S
C2114      C2116   1.541       .  S
C2114      H2120   1.111       .  S
C2115      H2121   1.086       .  S
C2115      C2116   1.367       .  D
C2116      C2236   1.481       .  S
C2117      H2122   1.087       .  S
C2117      C2118   1.362       .  D
C2118      C2302   1.447       .  S
C2123      C2124   1.538       .  S
C2123      C2129   1.534       .  S
C2123      C2127   1.529       .  S
C2123      C2299   1.475       .  S
C2124      H2131   1.086       .  S
C2124      C2125   1.368       .  D
C2125      C2126   1.538       .  S
C2125      C2247   1.450       .  S
C2126      C2130   1.541       .  S
C2126      C2128   1.548       .  S
C2126      H2132   1.109       .  S
C2127      H2133   1.085       .  S
C2127      C2128   1.368       .  D
C2128      C2224   1.492       .  S
C2129      H2134   1.087       .  S
C2129      C2130   1.364       .  D
C2130      C2221   1.450       .  S
C2135      C2136   1.534       .  S
C2135      C2141   1.529       .  S
C2135      C2139   1.535       .  S
C2135      C2246   1.466       .  S
C2136      H2143   1.087       .  S
C2136      C2137   1.364       .  D
C2137      C2138   1.542       .  S
C2137      C2210   1.449       .  S
C2138      C2142   1.541       .  S
C2138      C2140   1.542       .  S
C2138      H2144   1.111       .  S
C2139      H2145   1.086       .  S
C2139      C2140   1.367       .  D
C2140      C2212   1.482       .  S
C2141      H2146   1.087       .  S
C2141      C2142   1.361       .  D
C2142      C2289   1.441       .  S
C2147      C2148   1.536       .  S
C2147      C2153   1.529       .  S
C2147      C2151   1.526       .  S
C2147      C2294   1.469       .  S
C2148      H2155   1.086       .  S
C2148      C2149   1.367       .  D
C2149      C2150   1.541       .  S
C2149      C2322   1.448       .  S
C2150      C2154   1.547       .  S
C2150      C2152   1.544       .  S
C2150      H2156   1.111       .  S
C2151      H2157   1.088       .  S
C2151      C2152   1.363       .  D
C2152      C2200   1.480       .  S
C2153      H2158   1.087       .  S
C2153      C2154   1.365       .  D
C2154      C2198   1.447       .  S
O2159      V2167   1.911   1_554  S
O2159      C2169   1.266       .  A
O2160      V2499   1.911       .  S
O2160      C2170   1.266       .  A
O2161      V2167   1.899   1_554  S
O2161      C2171   1.262       .  A
O2162      V2499   1.900       .  S
O2162      C2172   1.262       .  A
O2163      V2500   1.912       .  S
O2163      C2172   1.266       .  A
O2164      V2168   1.910       .  S
O2164      C2171   1.266       .  A
O2165      V2500   1.898       .  S
O2165      C2170   1.261       .  A
O2166      V2168   1.900       .  S
O2166      C2169   1.262       .  A
V2167      O2492   1.911       .  S
V2167      O2494   1.900       .  S
V2167      V2168   2.089   1_556  T
V2168      O2495   1.912   1_554  S
V2168      O2497   1.898   1_554  S
C2169      C2209   1.443       .  S
C2170      C2234   1.442       .  S
C2171      C2197   1.441       .  S
C2172      C2222   1.444       .  S
C2173      C2174   1.527       .  S
C2173      C2179   1.538       .  S
C2173      C2177   1.540       .  S
C2173      C2255   1.524       .  S
C2174      H2181   1.086       .  S
C2175      C2227   1.475       .  S
C2176      C2510   1.540       .  S
C2176      H2182   1.110       .  S
C2177      H2183   1.086       .  S
C2178      C2508   1.540   1_554  S
C2178      C2203   1.485       .  S
C2179      H2184   1.083   1_554  S
C2180      C2311   1.478       .  S
C2185      C2186   1.533       .  S
C2185      C2191   1.536       .  S
C2185      C2189   1.538       .  S
C2185      C2283   1.522       .  S
C2186      H2193   1.087       .  S
C2186      C2187   1.360       .  D
C2187      C2188   1.537       .  S
C2187      C2239   1.479       .  S
C2188      C2192   1.546       .  S
C2188      C2190   1.547       .  S
C2188      H2194   1.106       .  S
C2189      H2195   1.084       .  S
C2189      C2190   1.370       .  D
C2190      C2215   1.503       .  S
C2191      H2196   1.082       .  S
C2191      C2192   1.367       .  D
C2192      C2267   1.479       .  S
C2197      C2198   1.209       .  T
C2199      C2200   1.404       .  A
C2199      C2204   1.392       .  A
C2199      H2205   1.083       .  S
C2200      C2201   1.403       .  A
C2201      C2202   1.406       .  A
C2201      H2206   1.085       .  S
C2202      C2203   1.408       .  A
C2202      H2207   1.082       .  S
C2203      C2204   1.402       .  A
C2204      H2208   1.084       .  S
C2209      C2210   1.210       .  T
C2211      C2212   1.403       .  A
C2211      C2216   1.400       .  A
C2211      H2217   1.083       .  S
C2212      C2213   1.399       .  A
C2213      C2214   1.398       .  A
C2213      H2218   1.082       .  S
C2214      C2215   1.413       .  A
C2214      H2219   1.079       .  S
C2215      C2216   1.409       .  A
C2216      H2220   1.077       .  S
C2221      C2222   1.211       .  T
C2223      C2224   1.411       .  A
C2223      C2228   1.397       .  A
C2223      H2229   1.081       .  S
C2224      C2225   1.406       .  A
C2225      C2226   1.396       .  A
C2225      H2230   1.080       .  S
C2226      C2227   1.402       .  A
C2226      H2231   1.083       .  S
C2227      C2228   1.399       .  A
C2228      H2232   1.083       .  S
C2233      C2234   1.210       .  T
C2235      C2236   1.402       .  A
C2235      C2240   1.396       .  A
C2235      H2241   1.084       .  S
C2236      C2237   1.406       .  A
C2237      C2238   1.400       .  A
C2237      H2242   1.083       .  S
C2238      C2239   1.403       .  A
C2238      H2243   1.084       .  S
C2239      C2240   1.404       .  A
C2240      H2244   1.082       .  S
C2245      C2246   1.205       .  T
C2247      C2248   1.211       .  T
C2249      C2250   1.208       .  T
C2251      C2252   1.401       .  A
C2251      C2256   1.390       .  A
C2251      H2257   1.083       .  S
C2252      C2253   1.400       .  A
C2253      C2254   1.400       .  A
C2253      H2258   1.082       .  S
C2254      C2255   1.411       .  A
C2254      H2259   1.083       .  S
C2255      C2256   1.408       .  A
C2256      H2260   1.077       .  S
C2261      C2262   1.207       .  T
C2263      C2264   1.407       .  A
C2263      C2268   1.400       .  A
C2263      H2269   1.081       .  S
C2264      C2265   1.412       .  A
C2265      C2266   1.396       .  A
C2265      H2270   1.080       .  S
C2266      C2267   1.398       .  A
C2266      H2271   1.083       .  S
C2267      C2268   1.404       .  A
C2268      H2272   1.083       .  S
C2273      C2274   1.205       .  T
C2275      C2276   1.207       .  T
C2277      C2278   1.208       .  T
C2279      C2280   1.403       .  A
C2279      C2284   1.388       .  A
C2279      H2285   1.083       .  S
C2280      C2281   1.405       .  A
C2281      C2282   1.404       .  A
C2281      H2286   1.083       .  S
C2282      C2283   1.411       .  A
C2282      H2287   1.078       .  S
C2283      C2284   1.406       .  A
C2284      H2288   1.084       .  S
C2289      C2290   1.206       .  T
C2291      C2292   1.204       .  T
C2293      C2294   1.207       .  T
C2295      C2296   1.206       .  T
C2297      C2298   1.205       .  T
C2299      C2300   1.210       .  T
C2301      C2302   1.209       .  T
C2303      C2304   1.204       .  T
C2305      C2306   1.208       .  T
C2307      C2308   1.406       .  A
C2307      C2312   1.406       .  A
C2307      H2313   1.081       .  S
C2308      C2309   1.403       .  A
C2309      C2310   1.389       .  A
C2309      H2314   1.085       .  S
C2310      C2311   1.402       .  A
C2310      H2647   1.081       .  S
C2311      C2312   1.404       .  A
C2312      H2316   1.085       .  S
H2315      C2642   1.081   1_554  S
C2317      C2318   1.203       .  T
C2319      C2320   1.204       .  T
C2321      C2322   1.210       .  T
C2323      C2324   1.209       .  T
O2325      V2333   1.905       .  S
O2325      C2335   1.264       .  A
O2326      C2336   1.264       .  A
O2327      V2333   1.901       .  S
O2327      C2337   1.263       .  A
O2328      C2338   1.262       .  A
O2329      V2334   1.907   1_655  S
O2329      C2338   1.265       .  A
O2330      C2337   1.265       .  A
O2331      V2334   1.891   1_655  S
O2331      C2336   1.260       .  A
O2332      C2335   1.260       .  A
C2335      C2651   1.431       .  S
C2336      C2650   1.431       .  S
C2337      C2653   1.442       .  S
C2338      C2655   1.440       .  S
C2339      C2340   1.527       .  S
C2339      C2345   1.531       .  S
C2339      C2343   1.527       .  S
C2339      C2636   1.463       .  S
C2340      H2347   1.087       .  S
C2340      C2341   1.361       .  D
C2341      C2342   1.546       .  S
C2341      C2637   1.445       .  S
C2342      C2346   1.545       .  S
C2342      C2344   1.543       .  S
C2342      H2348   1.111       .  S
C2343      H2349   1.086       .  S
C2343      C2344   1.364       .  D
C2344      C2640   1.481       .  S
C2345      H2350   1.086       .  S
C2345      C2346   1.367       .  D
C2346      C2656   1.446       .  S
O2351      V2359   1.903       .  S
O2351      C2361   1.263       .  A
O2352      C2362   1.261       .  A
O2353      V2359   1.904       .  S
O2353      C2363   1.264       .  A
O2354      C2364   1.265       .  A
O2355      C2364   1.263       .  A
O2356      V2360   1.903       .  S
O2356      C2363   1.263       .  A
O2357      C2362   1.264       .  A
O2358      V2360   1.906       .  S
O2358      C2361   1.265       .  A
V2359      V2360   2.090       .  T
C2361      C2633   1.441       .  S
C2362      C2630   1.433       .  S
C2363      C2638   1.440       .  S
C2364      C2632   1.442       .  S
O2365      C2375   1.262       .  A
O2366      V2373   1.897       .  S
O2366      C2376   1.261       .  A
O2367      C2377   1.264       .  A
O2368      V2373   1.903       .  S
O2368      C2378   1.264       .  A
O2369      V2374   1.896       .  S
O2369      C2378   1.261       .  A
O2370      C2377   1.261       .  A
O2371      V2374   1.900       .  S
O2371      C2376   1.264       .  A
O2372      C2375   1.264       .  A
V2373      V2374   2.091       .  T
C2375      C2625   1.436       .  S
C2376      C2623   1.432       .  S
C2377      C2628   1.435       .  S
C2378      C2622   1.435       .  S
C2379      C2380   1.529       .  S
C2379      C2385   1.537       .  S
C2379      C2383   1.527       .  S
C2379      C2627   1.467       .  S
C2380      H2387   1.087       .  S
C2380      C2381   1.362       .  D
C2381      C2382   1.539       .  S
C2381      C2649   1.437       .  S
C2382      C2386   1.538       .  S
C2382      C2384   1.542       .  S
C2382      H2388   1.111       .  S
C2383      H2389   1.086       .  S
C2383      C2384   1.366       .  D
C2384      C2612   1.485       .  S
C2385      H2390   1.086       .  S
C2385      C2386   1.368       .  D
C2386      C2610   1.445       .  S
O2391      C2401   1.265       .  A
O2392      V2399   1.911       .  S
O2392      C2402   1.266       .  A
O2393      C2403   1.261       .  A
O2394      V2399   1.895       .  S
O2394      C2404   1.261       .  A
O2395      V2400   1.905       .  S
O2395      C2404   1.264       .  A
O2396      C2403   1.264       .  A
O2397      V2400   1.895       .  S
O2397      C2402   1.261       .  A
O2398      C2401   1.261       .  A
V2399      V2400   2.091       .  T
C2401      C2608   1.438       .  S
C2402      C2609   1.439       .  S
C2403      C2635   1.431       .  S
C2404      C2606   1.434       .  S
C2405      C2406   1.532       .  S
C2405      C2411   1.532       .  S
C2405      C2409   1.527       .  S
C2405      C2629   1.465       .  S
C2406      H2413   1.087       .  S
C2406      C2407   1.362       .  D
C2407      C2408   1.539       .  S
C2407      C2594   1.443       .  S
C2408      C2412   1.541       .  S
C2408      C2410   1.550       .  S
C2408      H2414   1.109       .  S
C2409      H2415   1.085       .  S
C2409      C2410   1.368       .  D
C2410      C2596   1.496       .  S
C2411      H2416   1.087       .  S
C2411      C2412   1.365       .  D
C2412      C2607   1.444       .  S
C2417      C2418   1.531       .  S
C2417      C2423   1.531       .  S
C2417      C2421   1.525       .  S
C2417      C2624   1.463       .  S
C2418      H2425   1.087       .  S
C2418      C2419   1.366       .  D
C2419      C2420   1.542       .  S
C2419      C2581   1.445       .  S
C2420      C2424   1.542       .  S
C2420      C2422   1.539       .  S
C2420      H2426   1.111       .  S
C2421      H2427   1.088       .  S
C2421      C2422   1.361       .  D
C2422      C2584   1.475       .  S
C2423      H2428   1.087       .  S
C2423      C2424   1.365       .  D
C2424      C2605   1.440       .  S
O2429      V2437   1.904       .  S
O2429      C2439   1.264       .  A
O2430      C2440   1.264       .  A
O2431      V2437   1.901       .  S
O2431      C2441   1.263       .  A
O2432      C2442   1.262       .  A
O2433      C2442   1.265       .  A
O2434      V2438   1.911       .  S
O2434      C2441   1.266       .  A
O2435      C2440   1.261       .  A
O2436      V2438   1.895       .  S
O2436      C2439   1.261       .  A
V2437      V2438   2.090       .  T
C2439      C2577   1.433       .  S
C2440      C2593   1.437       .  S
C2441      C2580   1.444       .  S
C2442      C2582   1.440       .  S
C2443      C2444   1.531       .  S
C2443      C2449   1.530       .  S
C2443      C2447   1.534       .  S
C2443      C2652   1.465       .  S
C2444      H2451   1.086       .  S
C2444      C2445   1.364       .  D
C2445      C2446   1.546       .  S
C2445      C2565   1.448       .  S
C2446      C2450   1.542       .  S
C2446      C2448   1.541       .  S
C2446      H2452   1.111       .  S
C2447      H2453   1.086       .  S
C2447      C2448   1.367       .  D
C2448      C2568   1.481       .  S
C2449      H2454   1.087       .  S
C2449      C2450   1.362       .  D
C2450      C2634   1.447       .  S
C2455      C2456   1.538       .  S
C2455      C2461   1.534       .  S
C2455      C2459   1.529       .  S
C2455      C2631   1.475       .  S
C2456      H2463   1.086       .  S
C2456      C2457   1.368       .  D
C2457      C2458   1.538       .  S
C2457      C2579   1.450       .  S
C2458      C2462   1.541       .  S
C2458      C2460   1.548       .  S
C2458      H2464   1.109       .  S
C2459      H2465   1.085       .  S
C2459      C2460   1.368       .  D
C2460      C2556   1.492       .  S
C2461      H2466   1.087       .  S
C2461      C2462   1.364       .  D
C2462      C2553   1.450       .  S
C2467      C2468   1.534       .  S
C2467      C2473   1.529       .  S
C2467      C2471   1.535       .  S
C2467      C2578   1.466       .  S
C2468      H2475   1.087       .  S
C2468      C2469   1.364       .  D
C2469      C2470   1.542       .  S
C2469      C2542   1.449       .  S
C2470      C2474   1.541       .  S
C2470      C2472   1.542       .  S
C2470      H2476   1.111       .  S
C2471      H2477   1.086       .  S
C2471      C2472   1.367       .  D
C2472      C2544   1.482       .  S
C2473      H2478   1.087       .  S
C2473      C2474   1.361       .  D
C2474      C2621   1.441       .  S
C2479      C2480   1.536       .  S
C2479      C2485   1.529       .  S
C2479      C2483   1.526       .  S
C2479      C2626   1.469       .  S
C2480      H2487   1.086       .  S
C2480      C2481   1.367       .  D
C2481      C2482   1.541       .  S
C2481      C2654   1.448       .  S
C2482      C2486   1.547       .  S
C2482      C2484   1.544       .  S
C2482      H2488   1.111       .  S
C2483      H2489   1.088       .  S
C2483      C2484   1.363       .  D
C2484      C2532   1.480       .  S
C2485      H2490   1.087       .  S
C2485      C2486   1.365       .  D
C2486      C2530   1.447       .  S
O2491      V2499   1.911       .  S
O2491      C2501   1.266       .  A
O2492      C2502   1.266       .  A
O2493      V2499   1.899       .  S
O2493      C2503   1.262       .  A
O2494      C2504   1.262       .  A
O2495      C2504   1.266       .  A
O2496      V2500   1.910       .  S
O2496      C2503   1.266       .  A
O2497      C2502   1.261       .  A
O2498      V2500   1.900       .  S
O2498      C2501   1.262       .  A
V2499      V2500   2.089       .  T
C2501      C2541   1.443       .  S
C2502      C2566   1.442       .  S
C2503      C2529   1.441       .  S
C2504      C2554   1.444       .  S
C2505      C2506   1.527       .  S
C2505      C2511   1.538       .  S
C2505      C2509   1.540       .  S
C2505      C2587   1.524       .  S
C2506      H2513   1.087       .  S
C2507      C2559   1.475       .  S
C2508      H2514   1.110       .  S
C2509      H2515   1.086       .  S
C2510      C2535   1.485       .  S
C2511      H2516   1.083       .  S
C2512      C2643   1.478       .  S
C2517      C2518   1.533       .  S
C2517      C2523   1.536       .  S
C2517      C2521   1.538       .  S
C2517      C2615   1.522       .  S
C2518      H2525   1.087       .  S
C2518      C2519   1.360       .  D
C2519      C2520   1.537       .  S
C2519      C2571   1.479       .  S
C2520      C2524   1.546       .  S
C2520      C2522   1.547       .  S
C2520      H2526   1.106       .  S
C2521      H2527   1.084       .  S
C2521      C2522   1.370       .  D
C2522      C2547   1.503       .  S
C2523      H2528   1.082       .  S
C2523      C2524   1.367       .  D
C2524      C2599   1.479       .  S
C2529      C2530   1.209       .  T
C2531      C2532   1.404       .  A
C2531      C2536   1.392       .  A
C2531      H2537   1.083       .  S
C2532      C2533   1.403       .  A
C2533      C2534   1.406       .  A
C2533      H2538   1.085       .  S
C2534      C2535   1.408       .  A
C2534      H2539   1.082       .  S
C2535      C2536   1.402       .  A
C2536      H2540   1.084       .  S
C2541      C2542   1.210       .  T
C2543      C2544   1.403       .  A
C2543      C2548   1.400       .  A
C2543      H2549   1.084       .  S
C2544      C2545   1.399       .  A
C2545      C2546   1.398       .  A
C2545      H2550   1.082       .  S
C2546      C2547   1.413       .  A
C2546      H2551   1.079       .  S
C2547      C2548   1.409       .  A
C2548      H2552   1.077       .  S
C2553      C2554   1.211       .  T
C2555      C2556   1.411       .  A
C2555      C2560   1.397       .  A
C2555      H2561   1.081       .  S
C2556      C2557   1.406       .  A
C2557      C2558   1.396       .  A
C2557      H2562   1.080       .  S
C2558      C2559   1.402       .  A
C2558      H2563   1.083       .  S
C2559      C2560   1.399       .  A
C2560      H2564   1.083       .  S
C2565      C2566   1.210       .  T
C2567      C2568   1.402       .  A
C2567      C2572   1.397       .  A
C2567      H2573   1.084       .  S
C2568      C2569   1.406       .  A
C2569      C2570   1.400       .  A
C2569      H2574   1.083       .  S
C2570      C2571   1.403       .  A
C2570      H2575   1.084       .  S
C2571      C2572   1.404       .  A
C2572      H2576   1.082       .  S
C2577      C2578   1.205       .  T
C2579      C2580   1.211       .  T
C2581      C2582   1.208       .  T
C2583      C2584   1.401       .  A
C2583      C2588   1.390       .  A
C2583      H2589   1.083       .  S
C2584      C2585   1.400       .  A
C2585      C2586   1.400       .  A
C2585      H2590   1.082       .  S
C2586      C2587   1.411       .  A
C2586      H2591   1.083       .  S
C2587      C2588   1.408       .  A
C2588      H2592   1.077       .  S
C2593      C2594   1.207       .  T
C2595      C2596   1.407       .  A
C2595      C2600   1.400       .  A
C2595      H2601   1.081       .  S
C2596      C2597   1.412       .  A
C2597      C2598   1.396       .  A
C2597      H2602   1.080       .  S
C2598      C2599   1.398       .  A
C2598      H2603   1.083       .  S
C2599      C2600   1.404       .  A
C2600      H2604   1.083       .  S
C2605      C2606   1.205       .  T
C2607      C2608   1.207       .  T
C2609      C2610   1.208       .  T
C2611      C2612   1.403       .  A
C2611      C2616   1.388       .  A
C2611      H2617   1.083       .  S
C2612      C2613   1.405       .  A
C2613      C2614   1.404       .  A
C2613      H2618   1.083       .  S
C2614      C2615   1.411       .  A
C2614      H2619   1.078       .  S
C2615      C2616   1.406       .  A
C2616      H2620   1.084       .  S
C2621      C2622   1.206       .  T
C2623      C2624   1.204       .  T
C2625      C2626   1.207       .  T
C2627      C2628   1.206       .  T
C2629      C2630   1.205       .  T
C2631      C2632   1.210       .  T
C2633      C2634   1.209       .  T
C2635      C2636   1.204       .  T
C2637      C2638   1.208       .  T
C2639      C2640   1.406       .  A
C2639      C2644   1.406       .  A
C2639      H2645   1.081       .  S
C2640      C2641   1.403       .  A
C2641      C2642   1.389       .  A
C2641      H2646   1.085       .  S
C2642      C2643   1.402       .  A
C2643      C2644   1.404       .  A
C2644      H2648   1.085       .  S
C2649      C2650   1.203       .  T
C2651      C2652   1.204       .  T
C2653      C2654   1.210       .  T
C2655      C2656   1.209       .  T
