geometry optimzed in LAMMPS
_audit_creation_date              2020-12-01 
_audit_creation_method            'lammps2cif' 
_symmetry_space_group_name_H-M    'P1' 
_symmetry_Int_Tables_number       1 
_symmetry_cell_setting            triclinic 
loop_ 
_symmetry_equiv_pos_as_xyz 
  x,y,z 
_cell_length_a                    69.22860822 
_cell_length_b                    69.23647022822986 
_cell_length_c                    46.257261560877204 
_cell_angle_alpha                 89.86863825049201 
_cell_angle_beta                  90.11818456703848 
_cell_angle_gamma                 120.06902002685973 
loop_ 
_atom_site_label 
_atom_site_type_symbol 
_atom_site_fract_x 
_atom_site_fract_y 
_atom_site_fract_z 
_atom_site_charge 
O1          O  0.35649998  0.84893952  0.56988192    -0.55600
C2          C  0.32563176  0.85821841  0.63952708     0.77000
O3          O  0.35066029  0.90330556  0.59504606    -0.56800
C4          C  0.36711626  0.86149640  0.54887593     0.77000
C5          C  0.29078555  0.83031534  0.55108378     0.79400
Cd6        Cd  0.33153104  0.86468446  0.57781467     1.37500
O7          O  0.34187255  0.85863347  0.62638685    -0.55600
O8          O  0.30231882  0.82598692  0.56826132    -0.54400
C9          C  0.34516805  0.91149843  0.57429706     0.79300
O10         O  0.29774017  0.85082236  0.54676709    -0.56800
O11         O  0.31183491  0.86045932  0.62388620    -0.55300
O12         O  0.36148091  0.87559744  0.54175126    -0.55200
O13         O  0.33266550  0.89784428  0.55516562    -0.54400
O14         O  0.13375012  0.63413436  0.42545256    -0.55600
C15         C  0.12988813  0.66865254  0.35932185     0.77000
O16         O  0.09123752  0.66355335  0.44381599    -0.56800
C17         C  0.12398187  0.62629163  0.44925755     0.77000
C18         C  0.16045481  0.70421549  0.44603487     0.79400
Cd19       Cd  0.12390612  0.66376185  0.42110576     1.37500
O20         O  0.13303426  0.65485551  0.37360874    -0.55600
O21         O  0.16340721  0.69051300  0.43147552    -0.54400
C22         C  0.07733575  0.65084997  0.42502771     0.79300
O23         O  0.14037341  0.69953023  0.44870243    -0.56800
O24         O  0.12449119  0.68071344  0.37386686    -0.55300
O25         O  0.11424579  0.63586568  0.46012278    -0.55200
O26         O  0.08519995  0.64483312  0.40454726    -0.54400
O27         O  0.33244574  0.84687001  0.87136556    -0.55600
C28         C  0.36833374  0.85789047  0.94634068     0.77000
O29         O  0.33428153  0.89785976  0.93582832    -0.56800
C30         C  0.32588341  0.85820361  0.85727846     0.77000
C31         C  0.29224680  0.83142295  0.94465668     0.79400
Cd32       Cd  0.33417380  0.86395740  0.91872317     1.37500
O33         O  0.36536072  0.85606003  0.91925938    -0.55600
O34         O  0.30387923  0.82609757  0.92922736    -0.54400
C35         C  0.35315718  0.91150493  0.92515774     0.79300
O36         O  0.29982783  0.85215879  0.94782891    -0.56800
O37         O  0.35526204  0.86212818  0.96043800    -0.55300
O38         O  0.32267494  0.87178410  0.87180389    -0.55200
O39         O  0.36312538  0.90296793  0.91212697    -0.54400
O40         O  0.13132448  0.65280153  0.12702733    -0.55600
C41         C  0.13969097  0.63540578  0.04944726     0.77000
O42         O  0.09710829  0.67132475  0.07493905    -0.56800
C43         C  0.13439728  0.66987931  0.14080262     0.77000
C44         C  0.16330628  0.70735760  0.05061949     0.79400
Cd45       Cd  0.13049858  0.66680035  0.07851580     1.37500
O46         O  0.14434908  0.64000139  0.07594402    -0.55600
O47         O  0.16807382  0.69878390  0.07164702    -0.54400
C48         C  0.08329003  0.65071401  0.07201219     0.79300
O49         O  0.14302804  0.69739509  0.04288963    -0.56800
O50         O  0.13142641  0.64577699  0.03669739    -0.55300
O51         O  0.13646995  0.68604503  0.12563979    -0.55200
O52         O  0.09147878  0.63801653  0.07171416    -0.54400
O53         O  0.14746517  0.48472211  0.62971676    -0.55600
C54         C  0.13272837  0.50159139  0.55172030     0.77000
O55         O  0.14827924  0.44423440  0.55664325    -0.56800
C56         C  0.14056126  0.46722901  0.64483105     0.77000
C57         C  0.08603167  0.43427793  0.57878051     0.79400
Cd58       Cd  0.13341288  0.46550170  0.58291272     1.37500
O59         O  0.13835968  0.50332120  0.57805755    -0.55600
O60         O  0.09408002  0.45313986  0.59077761    -0.54400
C61         C  0.16862085  0.45934921  0.55775815     0.79300
O62         O  0.10007309  0.42925715  0.56907495    -0.56800
O63         O  0.12857598  0.48359427  0.53943684    -0.55300
O64         O  0.13097187  0.44899886  0.63109085    -0.55200
O65         O  0.17254429  0.47714544  0.57036444    -0.54400
O66         O  0.36716448  0.50299323  0.42889441    -0.55600
C67         C  0.32769489  0.46212153  0.36509564     0.77000
O68         O  0.33878390  0.43057528  0.43925919    -0.56800
C69         C  0.36908362  0.50354919  0.45615960     0.77000
C70         C  0.29435810  0.45487696  0.45360873     0.79400
Cd71       Cd  0.33605402  0.46411778  0.42657707     1.37500
O72         O  0.33627575  0.48037538  0.37884717    -0.55600
O73         O  0.30465760  0.47031667  0.43533873    -0.54400
C74         C  0.35885915  0.43880341  0.43093370     0.79300
O75         O  0.30296302  0.44283714  0.45902036    -0.56800
O76         O  0.32242560  0.44482397  0.37999706    -0.55300
O77         O  0.35502898  0.48626602  0.46963784    -0.55200
O78         O  0.36792804  0.45839725  0.42087307    -0.54400
O79         O  0.13118449  0.47925751  0.87613106    -0.55600
C80         C  0.13996390  0.50591966  0.95114899     0.77000
O81         O  0.09815809  0.42915811  0.91421785    -0.56800
C82         C  0.13914116  0.46893843  0.86259865     0.77000
C83         C  0.16579967  0.45677615  0.95158665     0.79400
Cd84       Cd  0.13290235  0.46515736  0.92454902     1.37500
O85         O  0.14269623  0.50498562  0.92423101    -0.55600
O86         O  0.17107705  0.47342150  0.93539491    -0.54400
C87         C  0.08590209  0.43227603  0.93157930     0.79300
O88         O  0.14509702  0.44366765  0.95512814    -0.56800
O89         O  0.13475649  0.48837750  0.96540641    -0.55300
O90         O  0.14443861  0.45710018  0.87784790    -0.55200
O91         O  0.09558024  0.45002998  0.94617908    -0.54400
O92         O  0.34257656  0.47505258  0.13373219    -0.55600
C93         C  0.36489418  0.49860675  0.05569897     0.77000
O94         O  0.35321063  0.44251184  0.10095187    -0.56800
C95         C  0.32566014  0.46023460  0.14706579     0.77000
C96         C  0.29047267  0.45331893  0.05964907     0.79400
Cd97       Cd  0.33114173  0.45920227  0.08537294     1.37500
O98         O  0.35824886  0.49935286  0.08088958    -0.55600
O99         O  0.30455164  0.47105105  0.07220485    -0.54400
C100        C  0.34648429  0.42740135  0.08199816     0.79300
O101        O  0.29473577  0.43752847  0.05982106    -0.56800
O102        O  0.35608786  0.47945222  0.04429810    -0.55300
O103        O  0.31068318  0.44501150  0.13155851    -0.55200
O104        O  0.33228349  0.42677666  0.06413487    -0.54400
O105        O  0.49578395  0.85824553  0.41773267    -0.55600
C106        C  0.53863570  0.86390353  0.35564637     0.77000
O107        O  0.57105712  0.90329919  0.42750035    -0.56800
C108        C  0.49455622  0.85999953  0.44483254     0.77000
C109        C  0.54504150  0.83548610  0.44516894     0.79400
Cd110      Cd  0.53563883  0.86778698  0.41750246     1.37500
O111        O  0.52033539  0.85292984  0.36909434    -0.55600
O112        O  0.53308680  0.83098232  0.42271826    -0.54400
C113        C  0.56321329  0.91583753  0.42099409     0.79300
O114        O  0.55353921  0.85533220  0.45431826    -0.56800
O115        O  0.55562179  0.87583318  0.37108483    -0.55300
O116        O  0.51204865  0.86479584  0.45896709    -0.55200
O117        O  0.54277311  0.90598421  0.41424403    -0.54400
O118        O  0.52226575  0.65258322  0.63130072    -0.55600
C119        C  0.49935268  0.63030230  0.55888161     0.77000
O120        O  0.55971572  0.70637531  0.56213814    -0.56800
C121        C  0.53393407  0.67004005  0.64597256     0.77000
C122        C  0.57348387  0.65776316  0.57978845     0.79400
Cd123      Cd  0.53798273  0.66821302  0.58398106     1.37500
O124        O  0.49756950  0.64291168  0.57710684    -0.55600
O125        O  0.56389660  0.65730715  0.60317183    -0.54400
C126        C  0.54284456  0.70769323  0.55443993     0.79300
O127        O  0.56736430  0.66419686  0.55769406    -0.56800
O128        O  0.51903417  0.63515978  0.55240957    -0.55300
O129        O  0.54680403  0.68745947  0.63169886    -0.55200
O130        O  0.52414092  0.69112123  0.56094365    -0.54400
O131        O  0.50016443  0.85778192  0.07128481    -0.55600
C132        C  0.54164141  0.86874932  0.13721088     0.77000
O133        O  0.55937232  0.85563992  0.04447328    -0.56800
C134        C  0.50054343  0.86286936  0.04487164     0.77000
C135        C  0.56901758  0.91840031  0.06394941     0.79400
Cd136      Cd  0.54054205  0.87107000  0.07469512     1.37500
O137        O  0.52501761  0.86704123  0.12354100    -0.55600
O138        O  0.57708314  0.90550446  0.06402840    -0.54400
C139        C  0.54518475  0.83536081  0.04941483     0.79300
O140        O  0.54834093  0.90931984  0.06885464    -0.56800
O141        O  0.55788837  0.87131519  0.12189600    -0.55300
O142        O  0.51929563  0.87128632  0.03237628    -0.55200
O143        O  0.52973285  0.83188538  0.06683375    -0.54400
O144        O  0.51455659  0.65320288  0.87887882    -0.55600
C145        C  0.49290455  0.63005098  0.95672022     0.77000
O146        O  0.57035033  0.66471567  0.93316464    -0.56800
C147        C  0.53230712  0.66394205  0.86431392     0.77000
C148        C  0.54159058  0.70421918  0.94956570     0.79400
Cd149      Cd  0.53308568  0.66163802  0.92668387     1.37500
O150        O  0.49320738  0.63283103  0.92962500    -0.55600
O151        O  0.52883585  0.69493892  0.92824232    -0.54400
C152        C  0.56286242  0.64387303  0.93433364     0.79300
O153        O  0.55102725  0.69408982  0.95985952    -0.56800
O154        O  0.51106328  0.64232015  0.96988594    -0.55300
O155        O  0.55023079  0.67363135  0.87874525    -0.55200
O156        O  0.54189860  0.63166303  0.93257263    -0.54400
O157        O  0.86644093  0.36798832  0.91829201    -0.55600
C158        C  0.86480910  0.32734872  0.85448191     0.77000
O159        O  0.90477579  0.33187416  0.92869543    -0.56800
C160        C  0.86700866  0.36954495  0.94558476     0.77000
C161        C  0.83747839  0.29324177  0.94149272     0.79400
Cd162      Cd  0.87137198  0.33485813  0.91626989     1.37500
O163        O  0.85574098  0.33632146  0.86864096    -0.55600
O164        O  0.83332484  0.30355103  0.92211298    -0.54400
C165        C  0.91868080  0.35215329  0.92324237     0.79300
O166        O  0.85770967  0.30207855  0.94920692    -0.56800
O167        O  0.87687793  0.32192574  0.86899166    -0.55300
O168        O  0.86868561  0.35455545  0.95912305    -0.55200
O169        O  0.91052439  0.36386940  0.91447147    -0.54400
O170        O  0.62844376  0.12967553  0.07064898    -0.55600
C171        C  0.67113523  0.14010386  0.13266880     0.77000
O172        O  0.66307055  0.09720997  0.08197587    -0.56800
C173        C  0.63008708  0.13799061  0.04570365     0.77000
C174        C  0.70750914  0.16666807  0.04439187     0.79400
Cd175      Cd  0.66601721  0.13343736  0.07062684     1.37500
O176        O  0.66093284  0.14768488  0.11794395    -0.55600
O177        O  0.69605432  0.17151355  0.06088920    -0.54400
C178        C  0.65049232  0.08634214  0.06115916     0.79300
O179        O  0.70027674  0.14604446  0.04070101    -0.56800
O180        O  0.67924837  0.13019012  0.11865071    -0.55300
O181        O  0.64847553  0.14458030  0.03290224    -0.55200
O182        O  0.64598468  0.09752548  0.04355302    -0.54400
O183        O  0.85719992  0.35413784  0.57436695    -0.55600
C184        C  0.86538443  0.32383624  0.63660045     0.77000
O185        O  0.85778890  0.29466814  0.54055233    -0.56800
C186        C  0.86134277  0.35940391  0.54792407     0.77000
C187        C  0.91844840  0.34443599  0.56788795     0.79400
Cd188      Cd  0.87074329  0.32709050  0.57440224     1.37500
O189        O  0.86840654  0.34085478  0.62258985    -0.55600
O190        O  0.90873024  0.35446954  0.55840526    -0.54400
C191        C  0.83730278  0.28629157  0.54665258     0.79300
O192        O  0.90600092  0.32574282  0.57977573    -0.56800
O193        O  0.86478087  0.30821491  0.62175534    -0.55300
O194        O  0.86943614  0.34942571  0.53391987    -0.55200
O195        O  0.83285006  0.29639077  0.56586089    -0.54400
O196        O  0.65340823  0.13818903  0.36471433    -0.55600
C197        C  0.63150994  0.13554830  0.44624307     0.77000
O198        O  0.64277022  0.09362864  0.39512995    -0.56800
C199        C  0.66991129  0.13962971  0.35100704     0.77000
C200        C  0.70738203  0.16464925  0.43781373     0.79400
Cd201      Cd  0.66505906  0.13191335  0.41281001     1.37500
O202        O  0.63862954  0.14564658  0.42239003    -0.55600
O203        O  0.69445108  0.17000616  0.42537060    -0.54400
C204        C  0.64900076  0.08442870  0.41364697     0.79300
O205        O  0.70094103  0.14400815  0.43820520    -0.56800
O206        O  0.64016622  0.12419923  0.45459314    -0.55300
O207        O  0.68444155  0.13827350  0.36615504    -0.55200
O208        O  0.66329794  0.09734292  0.43189574    -0.54400
O209        O  0.49377539  0.12912842  0.92024058    -0.55600
C210        C  0.45829017  0.13025557  0.85739058     0.77000
O211        O  0.44851199  0.08951774  0.93629582    -0.56800
C212        C  0.49803956  0.13433584  0.94665899     0.77000
C213        C  0.44756119  0.15914547  0.94543450     0.79400
Cd214      Cd  0.45689910  0.12647365  0.91992727     1.37500
O215        O  0.47579940  0.14004470  0.87266662    -0.55600
O216        O  0.46052105  0.16370323  0.92408737    -0.54400
C217        C  0.42795788  0.07915787  0.93026869     0.79300
O218        O  0.43808425  0.13914966  0.95424623    -0.56800
O219        O  0.44018774  0.11924957  0.87113148    -0.55300
O220        O  0.48357930  0.13668673  0.96046122    -0.55200
O221        O  0.42013492  0.09093412  0.92047068    -0.54400
O222        O  0.47414874  0.34737512  0.12762458    -0.55600
C223        C  0.50291982  0.36367526  0.05166472     0.77000
O224        O  0.44009263  0.29572862  0.04984682    -0.56800
C225        C  0.46716360  0.32940834  0.14171824     0.77000
C226        C  0.42893835  0.34280832  0.07316030     0.79400
Cd227      Cd  0.46248978  0.32991562  0.07930020     1.37500
O228        O  0.48490911  0.35224497  0.03786283    -0.55600
O229        O  0.42563807  0.32645838  0.08888510    -0.54400
C230        C  0.45383411  0.28877230  0.05163172     0.79300
O231        O  0.44709047  0.35216242  0.05932146    -0.56800
O232        O  0.50236739  0.35904806  0.07825808    -0.55300
O233        O  0.45834259  0.31170229  0.12682376    -0.55200
O234        O  0.47105198  0.30055818  0.06672649    -0.54400
O235        O  0.47843154  0.13165815  0.62459201    -0.55600
C236        C  0.50060251  0.13100565  0.54900320     0.77000
O237        O  0.42229378  0.09248871  0.57480700    -0.56800
C238        C  0.46203512  0.12993826  0.63879828     0.77000
C239        C  0.45629747  0.16180800  0.54918229     0.79400
Cd240      Cd  0.46085641  0.12610783  0.57629844     1.37500
O241        O  0.48272604  0.12519101  0.53516760    -0.55600
O242        O  0.46846245  0.16497520  0.57109408    -0.54400
C243        C  0.42892672  0.07885809  0.56918128     0.79300
O244        O  0.44572571  0.14192822  0.54000067    -0.56800
O245        O  0.50032636  0.13530104  0.57556431    -0.55300
O246        O  0.44527602  0.12676168  0.62404080    -0.55200
O247        O  0.44974195  0.08723151  0.56649356    -0.54400
O248        O  0.51039747  0.37157656  0.42246793    -0.55600
C249        C  0.47239661  0.33195326  0.36015513     0.77000
O250        O  0.45504931  0.30634151  0.45816905    -0.56800
C251        C  0.51478265  0.37030267  0.44877229     0.77000
C252        C  0.44503081  0.35669608  0.43289782     0.79400
Cd253      Cd  0.47315512  0.33737943  0.42251192     1.37500
O254        O  0.49038520  0.34098375  0.37453264    -0.55600
O255        O  0.43663573  0.33602449  0.42802810    -0.54400
C256        C  0.46383823  0.29536355  0.44871271     0.79300
O257        O  0.46606931  0.36793684  0.43392744    -0.56800
O258        O  0.45470991  0.32522414  0.37471208    -0.55300
O259        O  0.50036439  0.35325508  0.46234571    -0.55200
O260        O  0.47631795  0.30359031  0.42688362    -0.54400
O261        O  0.64022855  0.49242264  0.92876577    -0.55600
C262        C  0.67325286  0.53183309  0.86076985     0.77000
O263        O  0.66730493  0.56739815  0.93687286    -0.56800
C264        C  0.63377588  0.49399497  0.95376283     0.77000
C265        C  0.70895020  0.54180298  0.94919769     0.79400
Cd266      Cd  0.66723589  0.53276675  0.92255244     1.37500
O267        O  0.66160534  0.51416696  0.87519695    -0.55600
O268        O  0.69837305  0.52616809  0.93137207    -0.54400
C269        C  0.64883686  0.56215952  0.92489313     0.79300
O270        O  0.70065096  0.55411022  0.95417851    -0.56800
O271        O  0.68254207  0.54981545  0.87510804    -0.55300
O272        O  0.64304759  0.51340947  0.96437824    -0.55200
O273        O  0.63935315  0.54366625  0.91172104    -0.54400
O274        O  0.85460602  0.49561253  0.06927131    -0.55600
C275        C  0.86452923  0.52784031  0.14359708     0.77000
O276        O  0.90409333  0.56148088  0.05505150    -0.56800
C277        C  0.86990270  0.49836758  0.05196857     0.77000
C278        C  0.83609731  0.54308956  0.05693151     0.79400
Cd279      Cd  0.87040796  0.53542940  0.08195949     1.37500
O280        O  0.86661469  0.51449038  0.12699476    -0.55600
O281        O  0.83171120  0.52536135  0.07006511    -0.54400
C282        C  0.91621672  0.57094129  0.07688390     0.79300
O283        O  0.85653951  0.55775205  0.05567904    -0.56800
O284        O  0.86509302  0.54455655  0.13153784    -0.55300
O285        O  0.88553346  0.51825162  0.04876035    -0.55200
O286        O  0.90669108  0.56483821  0.10122818    -0.54400
O287        O  0.65746625  0.52318997  0.62831107    -0.55600
C288        C  0.63936703  0.50155295  0.55371062     0.77000
O289        O  0.67104622  0.57631616  0.59544363    -0.56800
C290        C  0.67443586  0.53614227  0.64321024     0.77000
C291        C  0.71450296  0.55097096  0.55798571     0.79400
Cd292      Cd  0.67229954  0.54233838  0.58177904     1.37500
O293        O  0.63718270  0.50596217  0.57963842    -0.55600
O294        O  0.70297791  0.53508894  0.57516461    -0.54400
C295        C  0.65825706  0.57528597  0.57525761     0.79300
O296        O  0.70681386  0.56372761  0.55215193    -0.56800
O297        O  0.65688705  0.51591427  0.54093618    -0.55300
O298        O  0.69051013  0.55175749  0.62953564    -0.55200
O299        O  0.65290722  0.55969586  0.55729499    -0.54400
O300        O  0.87250411  0.51627436  0.37596727    -0.55600
C301        C  0.85543396  0.48754010  0.45390272     0.77000
O302        O  0.89758359  0.56552492  0.41669557    -0.56800
C303        C  0.86021008  0.52110725  0.36097646     0.77000
C304        C  0.83378696  0.53931465  0.44974466     0.79400
Cd305      Cd  0.86451866  0.52771165  0.42314398     1.37500
O306        O  0.84835187  0.48679837  0.42844669    -0.55600
O307        O  0.82742988  0.52179496  0.43500764    -0.54400
C308        C  0.91103420  0.56121547  0.42990627     0.79300
O309        O  0.85468293  0.55211899  0.45156044    -0.56800
O310        O  0.86604969  0.50672702  0.46512436    -0.55300
O311        O  0.84990805  0.52892488  0.37479157    -0.55200
O312        O  0.90273488  0.54171320  0.44011496    -0.54400
C313        C  0.76389620  0.56918462  0.50725346     0.14900
C314        C  0.77060173  0.55367724  0.51429336     0.01800
C315        C  0.76049286  0.53910046  0.53764689     0.16800
C316        C  0.74309065  0.53910035  0.55279970     0.26200
C317        C  0.73521873  0.55359578  0.54470328    -0.40100
C318        C  0.74634091  0.56919156  0.52235318     0.33300
C319        C  0.78674646  0.55117648  0.49607420     0.01900
F320        F  0.76709624  0.52432950  0.54524737    -0.12400
F321        F  0.73969776  0.58382718  0.51426038    -0.13000
C322        C  0.80933796  0.56780574  0.49509813     0.16800
C323        C  0.82468688  0.56428547  0.47955239     0.26200
C324        C  0.81758278  0.54405442  0.46459372    -0.40100
C325        C  0.79472054  0.52776741  0.46501545     0.33200
C326        C  0.77954539  0.53130924  0.48062086     0.14900
F327        F  0.81663656  0.58709898  0.51003374    -0.12400
F328        F  0.78698447  0.50803718  0.45098884    -0.12900
F329        F  0.84649812  0.58052743  0.47960499    -0.15200
F330        F  0.75770344  0.51511649  0.48098385    -0.13800
F331        F  0.77355368  0.58350292  0.48479208    -0.13800
F332        F  0.73353797  0.52434300  0.57486255    -0.15200
C333        C  0.87218780  0.51260265  0.28319523     0.14900
C334        C  0.85656743  0.51602504  0.26797595     0.01800
C335        C  0.84107784  0.51935729  0.28352757     0.16800
C336        C  0.84191567  0.52047486  0.31371303     0.26200
C337        C  0.85823739  0.51813532  0.32907291    -0.40100
C338        C  0.87303986  0.51364649  0.31345369     0.33300
C339        C  0.85780221  0.51837681  0.23604675     0.01900
F340        F  0.82533624  0.52196862  0.26934933    -0.12400
F341        F  0.88899470  0.51118290  0.32728264    -0.13000
C342        C  0.85573439  0.50110091  0.21807285     0.16800
C343        C  0.85775681  0.50402672  0.18799784     0.26200
C344        C  0.86182571  0.52431077  0.17536821    -0.40100
C345        C  0.86361451  0.54143582  0.19354125     0.33200
C346        C  0.86172457  0.53851016  0.22348116     0.14900
F347        F  0.85151926  0.48131400  0.22961998    -0.12400
F348        F  0.86769569  0.56131645  0.18249707    -0.12900
F349        F  0.85557903  0.48693408  0.17131388    -0.15200
F350        F  0.86436182  0.55568432  0.24037676    -0.13800
F351        F  0.88738209  0.50938608  0.26869967    -0.13800
F352        F  0.82690077  0.52418817  0.32780343    -0.15200
C353        C  0.65617764  0.51931605  0.72095354     0.14900
C354        C  0.67659768  0.53062846  0.73578635     0.01800
C355        C  0.69642746  0.54285563  0.71999580     0.16800
C356        C  0.69581613  0.54431729  0.68986269     0.26200
C357        C  0.67529782  0.53346695  0.67493479    -0.47300
C358        C  0.65550786  0.52066560  0.69081799     0.33300
C359        C  0.67701257  0.53091458  0.76779380     0.01900
F360        F  0.71640420  0.55351218  0.73385482    -0.12400
F361        F  0.63535844  0.51017895  0.67736965    -0.13000
C362        C  0.66935340  0.51109542  0.78367406     0.16800
C363        C  0.66856415  0.51138154  0.81392874     0.26200
C364        C  0.67542613  0.53156242  0.82884245    -0.40100
C365        C  0.68355664  0.55145235  0.81275363     0.33200
C366        C  0.68427358  0.55108472  0.78257173     0.14900
F367        F  0.66264196  0.49145867  0.76983091    -0.12400
F368        F  0.69011172  0.57124010  0.82608701    -0.12900
F369        F  0.66105917  0.49188550  0.82854308    -0.15200
F370        F  0.69129398  0.57037910  0.76764375    -0.13800
F371        F  0.63674964  0.50773928  0.73579555    -0.13800
F372        F  0.71533267  0.55641192  0.67536660    -0.15200
C373        C  0.76101881  0.56559144  0.99654158     0.14900
C374        C  0.76617502  0.54840117  0.99526697     0.01800
C375        C  0.75338511  0.52988498  0.97748507     0.16800
C376        C  0.73522629  0.52808551  0.96201951     0.26200
C377        C  0.72940489  0.54485813  0.96392972    -0.40100
C378        C  0.74274809  0.56384015  0.98104932     0.33300
C379        C  0.78413658  0.54890440  0.01330462     0.01900
F380        F  0.75837184  0.51330243  0.97537892    -0.12400
F381        F  0.73799181  0.58057424  0.98314663    -0.13000
C382        C  0.77878694  0.53208664  0.03396279     0.16800
C383        C  0.79562257  0.53060494  0.04873225     0.26200
C384        C  0.81828761  0.54606492  0.04327570    -0.40100
C385        C  0.82358083  0.56360970  0.02355555     0.33200
C386        C  0.80662435  0.56495411  0.00864640     0.14900
F387        F  0.75711823  0.51677882  0.03944443    -0.12400
F388        F  0.84516042  0.57896226  0.01775708    -0.12900
F389        F  0.78962817  0.51375470  0.06805403    -0.15200
F390        F  0.81220139  0.58130563  0.98867179    -0.13800
F391        F  0.77319796  0.58368804  0.01355451    -0.13800
F392        F  0.72294401  0.50946850  0.94590482    -0.15200
C393        C  0.56638751  0.42642458  0.46426755     0.14900
C394        C  0.57113759  0.42375232  0.49309881     0.01800
C395        C  0.55819866  0.40289738  0.50655327     0.16800
C396        C  0.54037251  0.38531650  0.49187247     0.26200
C397        C  0.53512573  0.38815176  0.46326493    -0.40100
C398        C  0.54869040  0.40881098  0.44944601     0.33300
C399        C  0.58897794  0.44295134  0.50939224     0.01900
F400        F  0.56276587  0.39955260  0.53406778    -0.12400
F401        F  0.54440084  0.41235239  0.42188703    -0.13000
C402        C  0.58404973  0.44981887  0.53560905     0.16800
C403        C  0.60052540  0.46848560  0.55035393     0.26200
C404        C  0.62225547  0.48095598  0.53897119    -0.40100
C405        C  0.62725179  0.47384885  0.51292721     0.33200
C406        C  0.61082663  0.45497657  0.49842941     0.14900
F407        F  0.56301225  0.43890635  0.54648993    -0.12400
F408        F  0.64809482  0.48505295  0.50148585    -0.12900
F409        F  0.59492619  0.47473182  0.57532448    -0.15200
F410        F  0.61632508  0.44834631  0.47369692    -0.13800
F411        F  0.57829523  0.44645059  0.45078153    -0.13800
F412        F  0.52810157  0.36559877  0.50591540    -0.15200
C413        C  0.44510894  0.24716734  0.50202153     0.14900
C414        C  0.45576045  0.23599616  0.49102783     0.01800
C415        C  0.46828972  0.24387417  0.46549640     0.16800
C416        C  0.47052735  0.26282391  0.45146167     0.26200
C417        C  0.46023382  0.27438874  0.46268360    -0.40100
C418        C  0.44723909  0.26611167  0.48797388     0.33300
C419        C  0.45452522  0.21659945  0.50658883     0.01900
F420        F  0.47902163  0.23359971  0.45461397    -0.12400
F421        F  0.43678097  0.27646924  0.49943956    -0.13000
C422        C  0.44540019  0.19566827  0.49308184     0.16800
C423        C  0.44553504  0.17774549  0.50706918     0.26200
C424        C  0.45490264  0.18040886  0.53490719    -0.40100
C425        C  0.46365774  0.20136084  0.54857480     0.33200
C426        C  0.46342254  0.21920820  0.53456253     0.14900
F427        F  0.43640323  0.19262078  0.46621178    -0.12400
F428        F  0.47263899  0.20472246  0.57548146    -0.12900
F429        F  0.43701370  0.15796987  0.49294129    -0.15200
F430        F  0.47258015  0.23931987  0.54798983    -0.13800
F431        F  0.43259496  0.23968668  0.52640864    -0.13800
F432        F  0.48313849  0.27000341  0.42712405    -0.15200
C433        C  0.59171615  0.43406553  0.97398426     0.14900
C434        C  0.58064694  0.43707141  0.99748739     0.01800
C435        C  0.58780704  0.45883462  0.00731532     0.16800
C436        C  0.60543638  0.47726182  0.99362963     0.26200
C437        C  0.61609265  0.47434996  0.96946520    -0.40100
C438        C  0.60916761  0.45249234  0.96000808     0.33300
C439        C  0.56122188  0.41762997  0.01119415     0.01900
F440        F  0.57719590  0.46233766  0.02960407    -0.12400
F441        F  0.61931730  0.44886125  0.93728145    -0.13000
C442        C  0.56085225  0.41398855  0.04114604     0.16800
C443        C  0.54210373  0.39628756  0.05422679     0.26200
C444        C  0.52329626  0.38173805  0.03758874    -0.40100
C445        C  0.52390508  0.38517941  0.00745340     0.33200
C446        C  0.54262803  0.40296753  0.99446357     0.14900
F447        F  0.57872159  0.42759625  0.05780717    -0.12400
F448        F  0.50630448  0.37150791  0.99043741    -0.12900
F449        F  0.54228813  0.39371806  0.08331254    -0.15200
F450        F  0.54229344  0.40627665  0.96555840    -0.13800
F451        F  0.58568365  0.41321443  0.96462825    -0.13800
F452        F  0.61155879  0.49798970  0.00357594    -0.15200
C453        C  0.45156728  0.31732582  0.28256920     0.14900
C454        C  0.47164104  0.32789251  0.26694886     0.01800
C455        C  0.49195389  0.33882837  0.28204549     0.16800
C456        C  0.49222462  0.33967490  0.31229078     0.26200
C457        C  0.47210276  0.32975418  0.32811171    -0.40100
C458        C  0.45174381  0.31828666  0.31282767     0.33300
C459        C  0.47130745  0.32830439  0.23490263     0.01900
F460        F  0.51159003  0.34876279  0.26742168    -0.12400
F461        F  0.43192276  0.30818741  0.32703145    -0.13000
C462        C  0.47877846  0.34857053  0.22016097     0.16800
C463        C  0.47759010  0.34900516  0.18995741     0.26200
C464        C  0.46900301  0.32910194  0.17379632    -0.40100
C465        C  0.46181342  0.30883125  0.18874807     0.33200
C466        C  0.46293112  0.30847250  0.21897280     0.14900
F467        F  0.48669797  0.36793073  0.23515166    -0.12400
F468        F  0.45357451  0.28925184  0.17421495    -0.12900
F469        F  0.48451956  0.36892565  0.17668774    -0.15200
F470        F  0.45594612  0.28872536  0.23273855    -0.13800
F471        F  0.43171584  0.30664697  0.26841480    -0.13800
F472        F  0.51225040  0.35059880  0.32597840    -0.15200
C473        C  0.44642000  0.13572869  0.71572232     0.14900
C474        C  0.46158311  0.13229891  0.73202882     0.01800
C475        C  0.47731613  0.12866531  0.71757019     0.16800
C476        C  0.47773156  0.12823365  0.68729945     0.26200
C477        C  0.46228764  0.13130369  0.67087247    -0.40100
C478        C  0.44672264  0.13520470  0.68548706     0.33300
C479        C  0.46067428  0.13209579  0.76409724     0.01900
F480        F  0.49187716  0.12487049  0.73281722    -0.12400
F481        F  0.43189536  0.13878025  0.67055199    -0.13000
C482        C  0.44124063  0.11643843  0.77859050     0.16800
C483        C  0.44032945  0.11605273  0.80882669     0.26200
C484        C  0.45895775  0.13128095  0.82526899    -0.40100
C485        C  0.47836781  0.14707151  0.81062771     0.33200
C486        C  0.47918404  0.14747212  0.78036057     0.14900
F487        F  0.42326516  0.10110769  0.76341014    -0.12400
F488        F  0.49654038  0.16234312  0.82553957    -0.12900
F489        F  0.42134377  0.10037957  0.82193161    -0.15200
F490        F  0.49797518  0.16312241  0.76687489    -0.13800
F491        F  0.43141638  0.13982635  0.72914417    -0.13800
F492        F  0.49284897  0.12415759  0.67416066    -0.15200
C493        C  0.42979948  0.23799529  0.00215218     0.14900
C494        C  0.44519437  0.23065606  0.00604567     0.01800
C495        C  0.46299809  0.24201326  0.02538278     0.16800
C496        C  0.46561111  0.26065025  0.04044396     0.26200
C497        C  0.45033021  0.26829548  0.03655824    -0.40100
C498        C  0.43223384  0.25657838  0.01738274     0.33300
C499        C  0.44320435  0.21145162  0.98961239     0.01900
F500        F  0.47820982  0.23530506  0.02916435    -0.12400
F501        F  0.41704450  0.26322816  0.01297705    -0.13000
C502        C  0.44904141  0.21380407  0.96025926     0.16800
C503        C  0.44979724  0.19653660  0.94555294     0.26200
C504        C  0.44444608  0.17648685  0.95993942    -0.40100
C505        C  0.43766692  0.17388271  0.98908249     0.33200
C506        C  0.43724549  0.19130107  0.00381208     0.14900
F507        F  0.45493806  0.23321771  0.94619403    -0.12400
F508        F  0.43255836  0.15493576  0.00382901    -0.12900
F509        F  0.45611657  0.19960564  0.91737338    -0.15200
F510        F  0.43159007  0.18875310  0.03222431    -0.13800
F511        F  0.41241114  0.22713299  0.98359054    -0.13800
F512        F  0.48329925  0.27129172  0.05861417    -0.15200
C513        C  0.58633338  0.12228795  0.50221621     0.14900
C514        C  0.57804649  0.13615338  0.49331271     0.01800
C515        C  0.58809688  0.15064618  0.46979675     0.16800
C516        C  0.60577980  0.15086223  0.45487483     0.26200
C517        C  0.61375362  0.13650005  0.46317458    -0.40100
C518        C  0.60401819  0.12245711  0.48737531     0.33300
C519        C  0.55834698  0.13488024  0.50775746     0.01900
F520        F  0.58071806  0.16461187  0.46126931    -0.12400
F521        F  0.61115295  0.10839146  0.49633155    -0.13000
C522        C  0.55905745  0.14019359  0.53716533     0.16800
C523        C  0.54037709  0.13900894  0.55062075     0.26200
C524        C  0.52056497  0.13243940  0.53485994    -0.40100
C525        C  0.51990030  0.12683813  0.50541671     0.33200
C526        C  0.53860149  0.12809400  0.49206954     0.14900
F527        F  0.57798619  0.14683832  0.55277205    -0.12400
F528        F  0.50109536  0.11990989  0.48943118    -0.12900
F529        F  0.54176004  0.14427969  0.57908879    -0.15200
F530        F  0.53730032  0.12224452  0.46382561    -0.13800
F531        F  0.57674810  0.10796332  0.52469967    -0.13800
F532        F  0.61497017  0.16508784  0.43222109    -0.15200
C533        C  0.86299240  0.40156495  0.49376596     0.14900
C534        C  0.85188538  0.41072863  0.50879310     0.01800
C535        C  0.84318793  0.40247243  0.53637652     0.16800
C536        C  0.84584638  0.38551538  0.54895307     0.26200
C537        C  0.85738062  0.37655466  0.53416408    -0.40100
C538        C  0.86571928  0.38467042  0.50625151     0.33300
C539        C  0.85057411  0.42973836  0.49619597     0.01900
F540        F  0.83213392  0.41089382  0.55115051    -0.12400
F541        F  0.87713666  0.37677511  0.49123003    -0.13000
C542        C  0.83970829  0.42748005  0.46968746     0.16800
C543        C  0.84045783  0.44604713  0.45641459     0.26200
C544        C  0.85228133  0.46730840  0.46935882    -0.40100
C545        C  0.86229496  0.46923977  0.49660831     0.33200
C546        C  0.86147438  0.45065217  0.50979897     0.14900
F547        F  0.82861484  0.40729440  0.45646269    -0.12400
F548        F  0.87358121  0.48925963  0.51019366    -0.12900
F549        F  0.82997755  0.44321351  0.43061944    -0.15200
F550        F  0.87228230  0.45331557  0.53529679    -0.13800
F551        F  0.87198545  0.40960890  0.46734055    -0.13800
F552        F  0.83717754  0.37797967  0.57564405    -0.15200
C553        C  0.77962801  0.24173055  0.52213381     0.14900
C554        C  0.78460915  0.23099284  0.50019951     0.01800
C555        C  0.80695794  0.23736169  0.49472655     0.16800
C556        C  0.82421720  0.25492597  0.51030708     0.26200
C557        C  0.81930593  0.26631405  0.53173782    -0.40100
C558        C  0.79671713  0.25910672  0.53784309     0.33300
C559        C  0.76633002  0.21397775  0.48224084     0.01900
F560        F  0.81205744  0.22705727  0.47362807    -0.12400
F561        F  0.79101410  0.26920886  0.55854584    -0.13000
C562        C  0.75523360  0.22053575  0.46259066     0.16800
C563        C  0.73656046  0.20455502  0.44741666     0.26200
C564        C  0.72849722  0.18159048  0.45177326    -0.40100
C565        C  0.74021967  0.17511627  0.47078815     0.33200
C566        C  0.75894646  0.19120980  0.48593173     0.14900
F567        F  0.76232751  0.24252226  0.45848428    -0.12400
F568        F  0.73313388  0.15321681  0.47560710    -0.12900
F569        F  0.72626101  0.21164928  0.42872548    -0.15200
F570        F  0.76933052  0.18455443  0.50510382    -0.13800
F571        F  0.75808181  0.23555404  0.52804607    -0.13800
F572        F  0.84566728  0.26101918  0.50395805    -0.15200
C573        C  0.57252799  0.13038586  0.03141778     0.14900
C574        C  0.57539370  0.14036708  0.00409249     0.01800
C575        C  0.59649929  0.15026937  0.99094785     0.16800
C576        C  0.61435496  0.14988020  0.00463998     0.26200
C577        C  0.61147012  0.13953521  0.03188104    -0.40100
C578        C  0.59034784  0.12998205  0.04520177     0.33300
C579        C  0.55617882  0.13975509  0.98891259     0.01900
F580        F  0.59983247  0.16038943  0.96478080    -0.12400
F581        F  0.58668924  0.11973625  0.07130411    -0.13000
C582        C  0.54434904  0.14914022  0.00161175     0.16800
C583        C  0.52563915  0.14768079  0.98778138     0.26200
C584        C  0.51849745  0.13693882  0.96079853    -0.40100
C585        C  0.53064515  0.12788235  0.94793819     0.33200
C586        C  0.54922169  0.12922092  0.96190619     0.14900
F587        F  0.55103942  0.15987761  0.02737255    -0.12400
F588        F  0.52412549  0.11699515  0.92226332    -0.12900
F589        F  0.51461499  0.15689550  0.00079848    -0.15200
F590        F  0.56000534  0.11953628  0.94945236    -0.13800
F591        F  0.55220415  0.12032197  0.04437470    -0.13800
F592        F  0.63440747  0.15952462  0.99099735    -0.15200
C593        C  0.69077260  0.14309601  0.27405244     0.14900
C594        C  0.67432228  0.14446542  0.25781019     0.01800
C595        C  0.65683163  0.14505632  0.27238987     0.16800
C596        C  0.65562314  0.14399141  0.30262448     0.26200
C597        C  0.67186897  0.14219117  0.31899465    -0.40100
C598        C  0.68956735  0.14192648  0.30426537     0.33300
C599        C  0.67474736  0.14416316  0.22568612     0.01900
F600        F  0.64040142  0.14582632  0.25725923    -0.12400
F601        F  0.70556584  0.14009334  0.31897536    -0.13000
C602        C  0.67454850  0.12625810  0.21114502     0.16800
C603        C  0.67388837  0.12529051  0.18094284     0.26200
C604        C  0.67304448  0.14203042  0.16458833    -0.40100
C605        C  0.67358014  0.16014168  0.17909500     0.33200
C606        C  0.67458421  0.16126628  0.20937855     0.14900
F607        F  0.67417830  0.10923350  0.22624667    -0.12400
F608        F  0.67353999  0.17694713  0.16396968    -0.12900
F609        F  0.67314675  0.10742943  0.16774258    -0.15200
F610        F  0.67559421  0.17916636  0.22281554    -0.13800
F611        F  0.70804399  0.14280420  0.26060840    -0.13800
F612        F  0.63825009  0.14429906  0.31573410    -0.15200
C613        C  0.86756788  0.42399833  0.95983906     0.14900
C614        C  0.86749403  0.42452337  0.99015479     0.01800
C615        C  0.86659739  0.40671807  0.00579243     0.16800
C616        C  0.86613833  0.38874331  0.99137799     0.26200
C617        C  0.86635080  0.38811667  0.96087813    -0.40100
C618        C  0.86685665  0.40592140  0.94528531     0.33300
C619        C  0.86814838  0.44352923  0.00561465     0.01900
F620        F  0.86656461  0.40696313  0.03514596    -0.12400
F621        F  0.86691483  0.40604436  0.91593904    -0.13000
C622        C  0.84931789  0.44056772  0.02074839     0.16800
C623        C  0.84990082  0.45833071  0.03585264     0.26200
C624        C  0.86943915  0.47946796  0.03619382    -0.40100
C625        C  0.88837052  0.48233913  0.02100759     0.33200
C626        C  0.88766900  0.46452062  0.00579798     0.14900
F627        F  0.83021142  0.42045489  0.02056454    -0.12400
F628        F  0.90770053  0.50226923  0.02116667    -0.12900
F629        F  0.83118105  0.45484409  0.04979137    -0.15200
F630        F  0.90618617  0.46762563  0.99165735    -0.13800
F631        F  0.86814897  0.44095705  0.94433012    -0.13800
F632        F  0.86564561  0.37205946  0.00742383    -0.15200
C633        C  0.87099352  0.31209938  0.77741459     0.14900
C634        C  0.85868268  0.31969071  0.76171239     0.01800
C635        C  0.84707558  0.32831292  0.77683032     0.16800
C636        C  0.84868182  0.33041836  0.80695064     0.26200
C637        C  0.86178704  0.32370063  0.82270379    -0.40100
C638        C  0.87247354  0.31399092  0.80756993     0.33300
C639        C  0.85937395  0.32026433  0.72960054     0.01900
F640        F  0.83434891  0.33498103  0.76230941    -0.12400
F641        F  0.88487579  0.30678773  0.82178257    -0.13000
C642        C  0.85331181  0.30088073  0.71340101     0.16800
C643        C  0.85514145  0.30194435  0.68318867     0.26200
C644        C  0.86290841  0.32242485  0.66856019    -0.40100
C645        C  0.86860711  0.34171090  0.68488529     0.33200
C646        C  0.86698555  0.34064262  0.71501632     0.14900
F647        F  0.84542311  0.28085934  0.72682083    -0.12400
F648        F  0.87636307  0.36184105  0.67182684    -0.12900
F649        F  0.84913093  0.28286565  0.66831241    -0.15200
F650        F  0.87357880  0.35976562  0.73007707    -0.13800
F651        F  0.88244600  0.30374133  0.76345695    -0.13800
F652        F  0.83771407  0.33946222  0.82052448    -0.15200
C653        C  0.74994881  0.22274051  0.01304962     0.14900
C654        C  0.76521171  0.21783626  0.99984084     0.01800
C655        C  0.76191803  0.19615204  0.00201162     0.16800
C656        C  0.74328549  0.17944676  0.01669694     0.26200
C657        C  0.72781356  0.18429259  0.02976430    -0.40100
C658        C  0.73151544  0.20622726  0.02794167     0.33300
C659        C  0.78411520  0.23541371  0.98319414     0.01900
F660        F  0.77643311  0.19103883  0.98925910    -0.12400
F661        F  0.71696674  0.21166977  0.03986272    -0.13000
C662        C  0.80620738  0.24396820  0.99263008     0.16800
C663        C  0.82375973  0.26232500  0.97857472     0.26200
C664        C  0.81944695  0.27240579  0.95477021    -0.40100
C665        C  0.79732021  0.26296844  0.94459432     0.33200
C666        C  0.77988553  0.24476337  0.95875987     0.14900
F667        F  0.81065354  0.23517868  0.01626394    -0.12400
F668        F  0.79234920  0.27158349  0.92122874    -0.12900
F669        F  0.84481762  0.27060539  0.98890240    -0.15200
F670        F  0.75868842  0.23645284  0.94890722    -0.13800
F671        F  0.75289238  0.24363938  0.01141468    -0.13800
F672        F  0.74041344  0.15857886  0.01806961    -0.15200
C673        C  0.63553093  0.60683925  0.94886551     0.14900
C674        C  0.61674170  0.60166703  0.93182027     0.01800
C675        C  0.60934251  0.58433739  0.91152552     0.16800
C676        C  0.62006443  0.57188565  0.90885369     0.26200
C677        C  0.63852980  0.57650579  0.92647612    -0.40100
C678        C  0.64635458  0.59437584  0.94625108     0.33300
C679        C  0.60402630  0.61347150  0.93573261     0.01900
F680        F  0.59154219  0.57939141  0.89430450    -0.12400
F681        F  0.66399378  0.59934846  0.96377607    -0.13000
C682        C  0.61346786  0.63619010  0.92875123     0.16800
C683        C  0.60037044  0.64643261  0.92931389     0.26200
C684        C  0.57758208  0.63404773  0.93683721    -0.40100
C685        C  0.56856253  0.61156669  0.94519097     0.33200
C686        C  0.58166414  0.60144241  0.94466343     0.14900
F687        F  0.63506895  0.64816437  0.92007295    -0.12400
F688        F  0.54692548  0.59920314  0.95360076    -0.12900
F689        F  0.60974012  0.66813632  0.92115186    -0.15200
F690        F  0.57239658  0.57966345  0.95246058    -0.13800
F691        F  0.64288309  0.62341338  0.96879091    -0.13800
F692        F  0.61219743  0.55520380  0.88902942    -0.15200
C693        C  0.61818958  0.97774836  0.06159778     0.14900
C694        C  0.60758406  0.98990657  0.05418585     0.01800
C695        C  0.58461434  0.97824114  0.04802366     0.16800
C696        C  0.57232131  0.95498415  0.05030288     0.26200
C697        C  0.58270465  0.94281449  0.05886478    -0.40100
C698        C  0.60589019  0.95441641  0.06386220     0.33300
C699        C  0.62000693  0.01471995  0.05491215     0.01900
F700        F  0.57380814  0.98943729  0.04103454    -0.12400
F701        F  0.61653568  0.94332779  0.07212082    -0.13000
C702        C  0.62016178  0.02728476  0.03087219     0.16800
C703        C  0.63045623  0.05059533  0.03257475     0.26200
C704        C  0.64098868  0.06183508  0.05832443    -0.40100
C705        C  0.64123103  0.04919611  0.08211987     0.33200
C706        C  0.63074757  0.02593698  0.08046082     0.14900
F707        F  0.61024175  0.01695491  0.00573184    -0.12400
F708        F  0.65078255  0.05920190  0.10756289    -0.12900
F709        F  0.62997681  0.06210317  0.00904143    -0.15200
F710        F  0.63021298  0.01426245  0.10437137    -0.13800
F711        F  0.64045157  0.98854096  0.06709937    -0.13800
F712        F  0.55011593  0.94440384  0.04442079    -0.15200
C713        C  0.53466448  0.75446464  0.96400507     0.14900
C714        C  0.54694969  0.76288821  0.98962070     0.01800
C715        C  0.55868712  0.75294647  0.00098185     0.16800
C716        C  0.55756740  0.73433064  0.98749851     0.26200
C717        C  0.54463718  0.72528728  0.96228950    -0.40100
C718        C  0.53360779  0.73594215  0.95033080     0.33300
C719        C  0.54674984  0.78143796  0.00518705     0.01900
F720        F  0.57057337  0.76078671  0.02581937    -0.12400
F721        F  0.52146033  0.72828341  0.92564846    -0.13000
C722        C  0.52701196  0.77810409  0.01818125     0.16800
C723        C  0.52667598  0.79545682  0.03315299     0.26200
C724        C  0.54606836  0.81666496  0.03504236    -0.40100
C725        C  0.56589570  0.81988131  0.02215013     0.33200
C726        C  0.56623626  0.80235777  0.00749704     0.14900
F727        F  0.50804463  0.75791495  0.01651995    -0.12400
F728        F  0.58502179  0.83990622  0.02392796    -0.12900
F729        F  0.50717550  0.79157405  0.04520142    -0.15200
F730        F  0.58550967  0.80587842  0.99514337    -0.13800
F731        F  0.52352209  0.76411270  0.95235739    -0.13800
F732        F  0.56870615  0.72486674  0.99964632    -0.15200
C733        C  0.62212139  0.60003161  0.55415071     0.14900
C734        C  0.62959494  0.61805673  0.57340114     0.01800
C735        C  0.64746149  0.62278281  0.59208575     0.16800
C736        C  0.65722244  0.60930089  0.59218203     0.26200
C737        C  0.64940333  0.59086707  0.57337697    -0.40100
C738        C  0.63197044  0.58665060  0.55400239     0.33300
C739        C  0.61750453  0.63065533  0.57551522     0.01900
F740        F  0.65525622  0.64031205  0.61059884    -0.12400
F741        F  0.62369972  0.56897595  0.53568945    -0.13000
C742        C  0.60765403  0.63113950  0.60179722     0.16800
C743        C  0.59429500  0.64093220  0.60341494     0.26200
C744        C  0.59011983  0.65017603  0.57858637    -0.40100
C745        C  0.60079851  0.65052719  0.55250650     0.33200
C746        C  0.61441843  0.64091077  0.55105170     0.14900
F747        F  0.61001227  0.62107237  0.62569923    -0.12400
F748        F  0.59772469  0.65971203  0.52822444    -0.12900
F749        F  0.58477504  0.64051958  0.62921942    -0.15200
F750        F  0.62437029  0.64132104  0.52561394    -0.13800
F751        F  0.60445074  0.59463897  0.53647192    -0.13800
F752        F  0.67405746  0.61411553  0.61110397    -0.15200
C753        C  0.55241474  0.67778588  0.78659770     0.14900
C754        C  0.53222729  0.66758312  0.77117991     0.01800
C755        C  0.51201799  0.65605695  0.78641527     0.16800
C756        C  0.51196694  0.65481838  0.81662304     0.26200
C757        C  0.53220623  0.66514415  0.83223405    -0.40100
C758        C  0.55244408  0.67660293  0.81677979     0.33300
C759        C  0.53229160  0.66839879  0.73916391     0.01900
F760        F  0.49226627  0.64613958  0.77198530    -0.12400
F761        F  0.57238203  0.68650967  0.83075753    -0.13000
C762        C  0.52314654  0.64854840  0.72316776     0.16800
C763        C  0.52341172  0.64913554  0.69297641     0.26200
C764        C  0.53295041  0.66967012  0.67804797    -0.40100
C765        C  0.54220717  0.68959252  0.69416916     0.33200
C766        C  0.54178929  0.68892923  0.72445832     0.14900
F767        F  0.51449663  0.62853911  0.73684758    -0.12400
F768        F  0.55155559  0.70972197  0.68070427    -0.12900
F769        F  0.51491711  0.62952853  0.67843351    -0.15200
F770        F  0.55045924  0.70834112  0.73948313    -0.13800
F771        F  0.57219396  0.68845276  0.77233410    -0.13800
F772        F  0.49205649  0.64347709  0.83047106    -0.15200
C773        C  0.61707427  0.02370446  0.39086720     0.14900
C774        C  0.61685122  0.01263506  0.41651576     0.01800
C775        C  0.62893302  0.02545256  0.44058155     0.16800
C776        C  0.64035137  0.04883464  0.43928774     0.26200
C777        C  0.63944193  0.05985798  0.41412592    -0.40100
C778        C  0.62801279  0.04699355  0.38976498     0.33300
C779        C  0.60322097  0.98784937  0.41832985     0.01900
F780        F  0.62885181  0.01537597  0.46582950    -0.12400
F781        F  0.62727636  0.05692235  0.36475954    -0.13000
C782        C  0.61259365  0.97500865  0.42786094     0.16800
C783        C  0.59961115  0.95166619  0.42919493     0.26200
C784        C  0.57701529  0.94062905  0.42066317    -0.40100
C785        C  0.56774866  0.95358249  0.41096221     0.33200
C786        C  0.58059715  0.97684958  0.41018890     0.14900
F787        F  0.63450619  0.98501762  0.43521605    -0.12400
F788        F  0.54623201  0.94381641  0.40181534    -0.12900
F789        F  0.60930055  0.93992342  0.43856108    -0.15200
F790        F  0.57075841  0.98867626  0.40169248    -0.13800
F791        F  0.60652162  0.01192349  0.36677787    -0.13800
F792        F  0.65144117  0.06060857  0.46312492    -0.15200
C793        C  0.52634656  0.86958390  0.21578241     0.14900
C794        C  0.54187257  0.86566589  0.23038731     0.01800
C795        C  0.55758451  0.86303659  0.21425166     0.16800
C796        C  0.55771286  0.86421986  0.18399548     0.26200
C797        C  0.54194057  0.86784604  0.16928559    -0.40100
C798        C  0.52630623  0.87057930  0.18560025     0.33300
C799        C  0.54156871  0.86437746  0.26243168     0.01900
F800        F  0.57251054  0.85882218  0.22779559    -0.12400
F801        F  0.51114338  0.87463234  0.17242533    -0.13000
C802        C  0.52212282  0.84881030  0.27698942     0.16800
C803        C  0.52132123  0.84830268  0.30721030     0.26200
C804        C  0.54003375  0.86336798  0.32360450    -0.40100
C805        C  0.55971235  0.87864084  0.30890490     0.33200
C806        C  0.56042336  0.87915026  0.27864247     0.14900
F807        F  0.50380576  0.83403356  0.26186244    -0.12400
F808        F  0.57813823  0.89361721  0.32369182    -0.12900
F809        F  0.50210865  0.83312299  0.32034353    -0.15200
F810        F  0.57929395  0.89465972  0.26514164    -0.13800
F811        F  0.51140545  0.87285129  0.23083459    -0.13800
F812        F  0.57300542  0.86137607  0.16915776    -0.15200
C813        C  0.54344610  0.78081421  0.46149952     0.14900
C814        C  0.54928464  0.78325850  0.49091303     0.01800
C815        C  0.55537602  0.80359814  0.50467914     0.16800
C816        C  0.55485738  0.82092730  0.48955980     0.26200
C817        C  0.54811629  0.81819888  0.46034012    -0.40100
C818        C  0.54286509  0.79806332  0.44635002     0.33300
C819        C  0.54784251  0.76415369  0.50747980     0.01900
F820        F  0.56085813  0.80631011  0.53316608    -0.12400
F821        F  0.53699277  0.79493588  0.41799520    -0.13000
C822        C  0.56694157  0.76531725  0.51989164     0.16800
C823        C  0.56542019  0.74703619  0.53510309     0.26200
C824        C  0.54466156  0.72728544  0.53851304    -0.40100
C825        C  0.52552034  0.72633830  0.52622490     0.33200
C826        C  0.52714633  0.74453101  0.51084636     0.14900
F827        F  0.58716066  0.78405672  0.51684262    -0.12400
F828        F  0.50514580  0.70770175  0.52872955    -0.12900
F829        F  0.58429164  0.74875480  0.54654075    -0.15200
F830        F  0.50836715  0.74308465  0.49945964    -0.13800
F831        F  0.53810763  0.76155521  0.44748250    -0.13800
F832        F  0.55997109  0.83996805  0.50396843    -0.15200
C833        C  0.40332914  0.37818685  0.05297254     0.14900
C834        C  0.38697870  0.37213857  0.07444050     0.01800
C835        C  0.38322497  0.35509783  0.09406711     0.16800
C836        C  0.39610205  0.34470778  0.09280624     0.26200
C837        C  0.41313992  0.35136325  0.07200192    -0.40100
C838        C  0.41623147  0.36787259  0.05166508     0.33300
C839        C  0.37486300  0.38459478  0.07724509     0.01900
F840        F  0.36735040  0.34882428  0.11483874    -0.12400
F841        F  0.43215156  0.37453028  0.03088812    -0.13000
C842        C  0.36211806  0.38547129  0.05415179     0.16800
C843        C  0.35232107  0.39887731  0.05588803     0.26200
C844        C  0.35519915  0.41173507  0.08079167    -0.40100
C845        C  0.36740344  0.41020794  0.10427482     0.33200
C846        C  0.37715389  0.39680814  0.10246332     0.14900
F847        F  0.35940379  0.37351230  0.02974022    -0.12400
F848        F  0.37018355  0.42188519  0.12898449    -0.12900
F849        F  0.34066733  0.39979533  0.03280600    -0.15200
F850        F  0.38961351  0.39646360  0.12496659    -0.13800
F851        F  0.40756184  0.39489992  0.03408882    -0.13800
F852        F  0.39246315  0.32881177  0.11273756    -0.15200
C853        C  0.43314867  0.58459166  0.97162602     0.14900
C854        C  0.43509248  0.57739349  0.99935178     0.01800
C855        C  0.45573862  0.58861079  0.01373158     0.16800
C856        C  0.47429282  0.60626519  0.00033198     0.26200
C857        C  0.47267410  0.61290430  0.97201935    -0.40100
C858        C  0.45175349  0.60212614  0.95803479     0.33300
C859        C  0.41599816  0.55757666  0.01285557     0.01900
F860        F  0.45820930  0.58182129  0.04035902    -0.12400
F861        F  0.44925568  0.60843160  0.93111453    -0.13000
C862        C  0.40609727  0.53677052  0.99888475     0.16800
C863        C  0.38926914  0.51767861  0.01252721     0.26200
C864        C  0.38205913  0.51898261  0.04058048    -0.40100
C865        C  0.39162677  0.54001588  0.05416812     0.33200
C866        C  0.40837131  0.55907459  0.04041022     0.14900
F867        F  0.41328019  0.53477311  0.97235777    -0.12400
F868        F  0.38498920  0.54223165  0.08094975    -0.12900
F869        F  0.38033474  0.49789202  0.99833809    -0.15200
F870        F  0.41719932  0.57907101  0.05406702    -0.13800
F871        F  0.41320724  0.57455566  0.95764767    -0.13800
F872        F  0.49404120  0.61622428  0.01475609    -0.15200
C873        C  0.02649737  0.38816852  0.91254633     0.14900
C874        C  0.01439474  0.39130765  0.93453069     0.01800
C875        C  0.02594828  0.40626321  0.95705214     0.16800
C876        C  0.04925882  0.41880781  0.95684705     0.26200
C877        C  0.06149340  0.41667581  0.93396669    -0.40100
C878        C  0.04985864  0.40071847  0.91224191     0.33300
C879        C  0.98985632  0.38093167  0.93238019     0.01900
F880        F  0.01454533  0.40919531  0.97883525    -0.12400
F881        F  0.06094194  0.39811952  0.88978279    -0.13000
C882        C  0.97580317  0.35770622  0.93420943     0.16800
C883        C  0.95260457  0.34823157  0.93163275     0.26200
C884        C  0.94314632  0.36188660  0.92680983    -0.40100
C885        C  0.95742155  0.38519922  0.92512323     0.33200
C886        C  0.98047519  0.39455849  0.92791210     0.14900
F887        F  0.98455431  0.34424811  0.93871578    -0.12400
F888        F  0.94915458  0.39910615  0.92087657    -0.12900
F889        F  0.93949675  0.32571952  0.93352600    -0.15200
F890        F  0.99377563  0.41704143  0.92568830    -0.13800
F891        F  0.01563391  0.37392682  0.89042154    -0.13800
F892        F  0.05977209  0.43345444  0.97871990    -0.15200
C893        C  0.19416930  0.43691777  0.00473671     0.14900
C894        C  0.21654856  0.44950151  0.99599646     0.01800
C895        C  0.22191640  0.46320110  0.97143849     0.16800
C896        C  0.20535624  0.46511415  0.95658577     0.26200
C897        C  0.18298305  0.45322617  0.96592331    -0.40100
C898        C  0.17749675  0.43871224  0.98981619     0.33300
C899        C  0.23460520  0.44978330  0.01354525     0.01900
F900        F  0.24335981  0.47500636  0.96206719    -0.12400
F901        F  0.15617019  0.42697270  0.99957744    -0.13000
C902        C  0.23607071  0.43042734  0.01742656     0.16800
C903        C  0.25394763  0.43133401  0.03291862     0.26200
C904        C  0.27058900  0.45164270  0.04493401    -0.40100
C905        C  0.26856376  0.47081684  0.04167909     0.33200
C906        C  0.25081195  0.46985878  0.02613068     0.14900
F907        F  0.22053766  0.41080068  0.00551621    -0.12400
F908        F  0.28401089  0.49075105  0.05298395    -0.12900
F909        F  0.25503554  0.41238820  0.03586007    -0.15200
F910        F  0.24944364  0.48866771  0.02328963    -0.13800
F911        F  0.18861052  0.42368521  0.02853667    -0.13800
F912        F  0.21133447  0.47878979  0.93318567    -0.15200
C913        C  0.40409075  0.42343795  0.42125377     0.14900
C914        C  0.39493591  0.40296909  0.43597154     0.01800
C915        C  0.37393778  0.39431800  0.44912066     0.16800
C916        C  0.36221053  0.40591717  0.44759376     0.26200
C917        C  0.37123989  0.42640974  0.43271737    -0.40100
C918        C  0.39238841  0.43503609  0.41955647     0.33300
C919        C  0.40710143  0.39042963  0.43701429     0.01900
F920        F  0.36490959  0.37470594  0.46379847    -0.12400
F921        F  0.40171128  0.45455622  0.40460692    -0.13000
C922        C  0.42807992  0.39967154  0.45046404     0.16800
C923        C  0.44007032  0.38832574  0.45006476     0.26200
C924        C  0.43128692  0.36749414  0.43614510    -0.40100
C925        C  0.40993881  0.35796494  0.42349850     0.33200
C926        C  0.39801544  0.36938426  0.42385049     0.14900
F927        F  0.43696515  0.41973750  0.46396150    -0.12400
F928        F  0.40101942  0.33808546  0.40955064    -0.12900
F929        F  0.46029819  0.39776098  0.46330569    -0.15200
F930        F  0.37794635  0.36030439  0.41026662    -0.13800
F931        F  0.42419617  0.43196072  0.40790903    -0.13800
F932        F  0.34210756  0.39712909  0.46094547    -0.15200
C933        C  0.42495373  0.55497828  0.47181948     0.14900
C934        C  0.42327137  0.55791967  0.50155253     0.01800
C935        C  0.40332627  0.54354096  0.51607136     0.16800
C936        C  0.38548327  0.52614817  0.50121243     0.26200
C937        C  0.38722595  0.52295784  0.47145968    -0.40100
C938        C  0.40708265  0.53773576  0.45685847     0.33300
C939        C  0.44242987  0.57590642  0.51737405     0.01900
F940        F  0.40135544  0.54599869  0.54484262    -0.12400
F941        F  0.40956121  0.53506232  0.42829259    -0.13000
C942        C  0.44051951  0.59305848  0.53073345     0.16800
C943        C  0.45886809  0.61048803  0.54480232     0.26200
C944        C  0.47955619  0.61116995  0.54551706    -0.40100
C945        C  0.48126136  0.59367338  0.53261292     0.33200
C946        C  0.46284596  0.57619725  0.51872471     0.14900
F947        F  0.42104425  0.59329329  0.52933200    -0.12400
F948        F  0.50067941  0.59330983  0.53368333    -0.12900
F949        F  0.45653879  0.62706865  0.55685155    -0.15200
F950        F  0.46488268  0.55942390  0.50671939    -0.13800
F951        F  0.44398086  0.56884777  0.45725836    -0.13800
F952        F  0.36652583  0.51242461  0.51599271    -0.15200
C953        C  0.30432507  0.44355189  0.22407918     0.14900
C954        C  0.32173833  0.46062512  0.24016083     0.01800
C955        C  0.34005976  0.47779665  0.22548004     0.16800
C956        C  0.34110512  0.47785853  0.19532264     0.26200
C957        C  0.32385702  0.46061193  0.17905290    -0.40100
C958        C  0.30537288  0.44348466  0.19383265     0.33300
C959        C  0.32137619  0.46024438  0.27224328     0.01900
F960        F  0.35738260  0.49422767  0.24043880    -0.12400
F961        F  0.28839186  0.42647729  0.17914463    -0.13000
C962        C  0.32009226  0.44201343  0.28736486     0.16800
C963        C  0.32152580  0.44236378  0.31755459     0.26200
C964        C  0.32449702  0.46108975  0.33326931    -0.40100
C965        C  0.32528032  0.47913301  0.31807741     0.33200
C966        C  0.32361677  0.47864026  0.28789441     0.14900
F967        F  0.31842910  0.42422983  0.27280771    -0.12400
F968        F  0.32768818  0.49731784  0.33237077    -0.12900
F969        F  0.32093399  0.42470566  0.33124225    -0.15200
F970        F  0.32428945  0.49622138  0.27387438    -0.13800
F971        F  0.28623554  0.42694713  0.23769336    -0.13800
F972        F  0.35929583  0.49470378  0.18218384    -0.15200
C973        C  0.97807276  0.35951440  0.58527970     0.14900
C974        C  0.99025692  0.37744263  0.56626460     0.01800
C975        C  0.97868568  0.38307474  0.54607063     0.16800
C976        C  0.95534820  0.37184083  0.54595434     0.26200
C977        C  0.94304938  0.35451543  0.56585967    -0.40100
C978        C  0.95467535  0.34809688  0.58504823     0.33300
C979        C  0.01482715  0.39165184  0.56927728     0.01900
F980        F  0.99006242  0.39985703  0.52681644    -0.12400
F981        F  0.94348516  0.33164966  0.60476389    -0.13000
C982        C  0.02905949  0.38276982  0.56619021     0.16800
C983        C  0.05222715  0.39649715  0.56942563     0.26200
C984        C  0.06152885  0.41934195  0.57591285    -0.40100
C985        C  0.04711428  0.42805140  0.57929097     0.33200
C986        C  0.02408469  0.41437034  0.57596265     0.14900
F987        F  0.02054426  0.36087291  0.55966422    -0.12400
F988        F  0.05525707  0.44996075  0.58544620    -0.12900
F989        F  0.06547964  0.38735043  0.56660683    -0.15200
F990        F  0.01070597  0.42329826  0.57971502    -0.13800
F991        F  0.98883413  0.35388736  0.60521193    -0.13800
F992        F  0.94482028  0.37821221  0.52661024    -0.15200
C993        C  0.13361441  0.44911685  0.72360852     0.14900
C994        C  0.14508985  0.46971802  0.73786684     0.01800
C995        C  0.15599406  0.48942980  0.72156694     0.16800
C996        C  0.15508018  0.48863145  0.69133314     0.26200
C997        C  0.14303337  0.46802102  0.67682296    -0.40100
C998        C  0.13252874  0.44822702  0.69338912     0.33300
C999        C  0.14467861  0.47065221  0.76976614     0.01900
F1000       F  0.16742395  0.50949292  0.73502023    -0.12400
F1001       F  0.12061847  0.42798747  0.68049191    -0.13000
C1002       C  0.15630515  0.46294119  0.78662922     0.16800
C1003       C  0.15491698  0.46280191  0.81683208     0.26200
C1004       C  0.14173526  0.47029710  0.83068196    -0.40100
C1005       C  0.13050495  0.47848375  0.81359090     0.33200
C1006       C  0.13198466  0.47863824  0.78342913     0.14900
F1007       F  0.16905621  0.45560097  0.77378506    -0.12400
F1008       F  0.11750296  0.48572293  0.82594308    -0.12900
F1009       F  0.16657078  0.45542200  0.83245931    -0.15200
F1010       F  0.12045763  0.48597696  0.76744446    -0.13800
F1011       F  0.12276967  0.42987392  0.73904875    -0.13800
F1012       F  0.16580332  0.50810401  0.67636676    -0.15200
C1013       C  0.24564149  0.46287404  0.47367187     0.14900
C1014       C  0.23812156  0.45072009  0.49953921     0.01800
C1015       C  0.24784576  0.43821729  0.50903297     0.16800
C1016       C  0.26557332  0.43875745  0.49356985     0.26200
C1017       C  0.27387236  0.45185655  0.46830871    -0.40100
C1018       C  0.26322566  0.46340789  0.45818883     0.33300
C1019       C  0.22082772  0.45214157  0.51688549     0.01900
F1020       F  0.24080653  0.42623977  0.53391746    -0.12400
F1021       F  0.26996422  0.47553168  0.43338785    -0.13000
C1022       C  0.19945824  0.43347249  0.52059646     0.16800
C1023       C  0.18256208  0.43565391  0.53428731     0.26200
C1024       C  0.18678440  0.45656703  0.54473758    -0.40100
C1025       C  0.20857598  0.47501312  0.54205262     0.33200
C1026       C  0.22532334  0.47279227  0.52821686     0.14900
F1027       F  0.19473691  0.41328545  0.51005823    -0.12400
F1028       F  0.21365642  0.49543123  0.55211710    -0.12900
F1029       F  0.16201998  0.41729049  0.53701663    -0.15200
F1030       F  0.24601363  0.49097486  0.52554207    -0.13800
F1031       F  0.23602954  0.47449917  0.46353505    -0.13800
F1032       F  0.27513315  0.42717004  0.50398401    -0.15200
C1033       C  0.02607497  0.64561885  0.07650465     0.14900
C1034       C  0.01206207  0.62317007  0.06884442     0.01800
C1035       C  0.02159541  0.61020965  0.06090406     0.16800
C1036       C  0.04472024  0.61933290  0.06125595     0.26200
C1037       C  0.05887569  0.64169277  0.06961884    -0.40100
C1038       C  0.04929879  0.65485727  0.07678664     0.33300
C1039       C  0.98746465  0.61276300  0.07011626     0.01900
F1040       F  0.00841694  0.58840006  0.05367094    -0.12400
F1041       F  0.06231143  0.67649608  0.08482047    -0.13000
C1042       C  0.97450741  0.60286327  0.04536004     0.16800
C1043       C  0.95125326  0.59029505  0.04725661     0.26200
C1044       C  0.94045231  0.58724109  0.07409980    -0.40100
C1045       C  0.95346411  0.59830926  0.09859796     0.33200
C1046       C  0.97676058  0.61092860  0.09658551     0.14900
F1047       F  0.98447568  0.60480211  0.01941839    -0.12400
F1048       F  0.94378420  0.59631542  0.12476966    -0.12900
F1049       F  0.93946774  0.58027381  0.02295677    -0.15200
F1050       F  0.98894476  0.62029835  0.12086090    -0.13800
F1051       F  0.01723681  0.65856360  0.08379033    -0.13800
F1052       F  0.05317693  0.60611794  0.05360126    -0.15200
C1053       C  0.15617644  0.56620157  0.96596017     0.14900
C1054       C  0.14554188  0.56417130  0.99257809     0.01800
C1055       C  0.13329001  0.54303785  0.00546967     0.16800
C1056       C  0.13167153  0.52422914  0.99206026     0.26200
C1057       C  0.14223636  0.52612864  0.96535335    -0.40100
C1058       C  0.15448084  0.54733571  0.95237710     0.33300
C1059       C  0.14606771  0.58374976  0.00629480     0.01900
F1060       F  0.12216900  0.54048092  0.03062440    -0.12400
F1061       F  0.16497742  0.54988129  0.92670826    -0.13000
C1062       C  0.13706260  0.59524835  0.99174824     0.16800
C1063       C  0.13560756  0.61242814  0.00547622     0.26200
C1064       C  0.14305058  0.61843962  0.03421728    -0.40100
C1065       C  0.15271616  0.60730086  0.04846363     0.33200
C1066       C  0.15417940  0.59011568  0.03459914     0.14900
F1067       F  0.12870270  0.58914402  0.96460977    -0.12400
F1068       F  0.16043951  0.61272114  0.07596486    -0.12900
F1069       F  0.12621222  0.62264931  0.99077595    -0.15200
F1070       F  0.16332620  0.57949154  0.04893197    -0.13800
F1071       F  0.16829178  0.58650101  0.95320203    -0.13800
F1072       F  0.11900744  0.50400270  0.00478090    -0.15200
C1073       C  0.38269910  0.01878402  0.91882558     0.14900
C1074       C  0.39204022  0.00741546  0.93301161     0.01800
C1075       C  0.41199859  0.01965381  0.94851445     0.16800
C1076       C  0.42302445  0.04293948  0.94884293     0.26200
C1077       C  0.41439452  0.05453850  0.93340876    -0.40100
C1078       C  0.39376462  0.04217629  0.91901336     0.33300
C1079       C  0.38172894  0.98289068  0.93061990     0.01900
F1080       F  0.42101820  0.00898169  0.96301719    -0.12400
F1081       F  0.38480079  0.05265388  0.90396063    -0.13000
C1082       C  0.39348346  0.97372193  0.91722466     0.16800
C1083       C  0.38428800  0.95060405  0.91560663     0.26200
C1084       C  0.36302952  0.93608853  0.92738254    -0.40100
C1085       C  0.35126954  0.94539568  0.94077918     0.33200
C1086       C  0.36053135  0.96858786  0.94225732     0.14900
F1087       F  0.41387780  0.98724225  0.90540269    -0.12400
F1088       F  0.33081702  0.93212599  0.95254678    -0.12900
F1089       F  0.39631760  0.94253448  0.90248123    -0.15200
F1090       F  0.34898806  0.97711541  0.95556934    -0.13800
F1091       F  0.36341796  0.00726022  0.90363066    -0.13800
F1092       F  0.44241285  0.05410687  0.96391076    -0.15200
C1093       C  0.46334799  0.86974018  0.99047921     0.14900
C1094       C  0.44197553  0.85489142  0.00123998     0.01800
C1095       C  0.43983376  0.84210813  0.02592330     0.16800
C1096       C  0.45882666  0.84445439  0.03998621     0.26200
C1097       C  0.48031398  0.85958230  0.02947653    -0.40100
C1098       C  0.48233766  0.87204909  0.00438857     0.33300
C1099       C  0.42210372  0.85388845  0.98767866     0.01900
F1100       F  0.41930562  0.82735541  0.03639903    -0.12400
F1101       F  0.50272737  0.88718172  0.99390475    -0.13000
C1102       C  0.41667268  0.84738970  0.95869522     0.16800
C1103       C  0.39893771  0.84823309  0.94531777     0.26200
C1104       C  0.38632405  0.85566266  0.96075160    -0.40100
C1105       C  0.39156807  0.86165818  0.99004090     0.33200
C1106       C  0.40925458  0.86075641  0.00331014     0.14900
F1107       F  0.42863484  0.84029336  0.94332877    -0.12400
F1108       F  0.38008251  0.86912698  0.00573975    -0.12900
F1109       F  0.39426623  0.84190403  0.91723005    -0.15200
F1110       F  0.41442404  0.86747295  0.03120981    -0.13800
F1111       F  0.46585523  0.88269742  0.96710561    -0.13800
F1112       F  0.45615316  0.83183440  0.06377899    -0.15200
C1113       C  0.24575190  0.77527755  0.97083441     0.14900
C1114       C  0.23321707  0.78149219  0.98816075     0.01800
C1115       C  0.23934842  0.80405482  0.99023787     0.16800
C1116       C  0.25823328  0.82035962  0.97556600     0.26200
C1117       C  0.27128499  0.81426404  0.95865061    -0.40100
C1118       C  0.26454582  0.79142220  0.95612339     0.33300
C1119       C  0.21464203  0.76430942  0.00538041     0.01900
F1120       F  0.22732406  0.81028799  0.00697835    -0.12400
F1121       F  0.27638994  0.78461487  0.93999187    -0.13000
C1122       C  0.21907185  0.75815500  0.03237477     0.16800
C1123       C  0.20227597  0.73997788  0.04737885     0.26200
C1124       C  0.18061880  0.72762469  0.03560438    -0.40100
C1125       C  0.17610965  0.73431279  0.00877931     0.33200
C1126       C  0.19304459  0.75250497  0.99378680     0.14900
F1127       F  0.23994567  0.76938720  0.04378391    -0.12400
F1128       F  0.15559420  0.72275721  0.99642097    -0.12900
F1129       F  0.20740881  0.73425655  0.07316300    -0.15200
F1130       F  0.18859436  0.75816107  0.96750634    -0.13800
F1131       F  0.24004453  0.75348461  0.96877302    -0.13800
F1132       F  0.26388578  0.84208611  0.97836452    -0.15200
C1133       C  0.96745808  0.61414197  0.42175967     0.14900
C1134       C  0.98172749  0.60766368  0.43457486     0.01800
C1135       C  0.97263654  0.58651018  0.44736367     0.16800
C1136       C  0.94964756  0.57166351  0.44649884     0.26200
C1137       C  0.93521388  0.57773394  0.43281239    -0.40100
C1138       C  0.94437727  0.59936073  0.42094946     0.33300
C1139       C  0.00620572  0.62170933  0.43181129     0.01900
F1140       F  0.98620803  0.57979210  0.45941998    -0.12400
F1141       F  0.93115013  0.60606796  0.40786772    -0.13000
C1142       C  0.01974691  0.63126656  0.45624604     0.16800
C1143       C  0.04303973  0.64187319  0.45388409     0.26200
C1144       C  0.05307256  0.64268672  0.42707379    -0.40100
C1145       C  0.03938222  0.63389456  0.40244889     0.33200
C1146       C  0.01619344  0.62358195  0.40483030     0.14900
F1147       F  0.01035252  0.62970737  0.48251457    -0.12400
F1148       F  0.04837193  0.63476516  0.37608057    -0.12900
F1149       F  0.05563791  0.65022649  0.47809733    -0.15200
F1150       F  0.00336553  0.61430716  0.38099416    -0.13800
F1151       F  0.97597897  0.63463426  0.40946975    -0.13800
F1152       F  0.94171290  0.55105569  0.45822073    -0.15200
C1153       C  0.12361991  0.53431269  0.49219433     0.14900
C1154       C  0.12627488  0.55308972  0.50728554     0.01800
C1155       C  0.13076182  0.55471954  0.53710027     0.16800
C1156       C  0.13285637  0.53805622  0.55150550     0.26200
C1157       C  0.13069422  0.51941301  0.53633833    -0.40100
C1158       C  0.12586905  0.51769264  0.50648945     0.33300
C1159       C  0.12502276  0.57127605  0.49183290     0.01900
F1160       F  0.13358141  0.57273586  0.55224312    -0.12400
F1161       F  0.12329496  0.49992962  0.49097940    -0.13000
C1162       C  0.11012847  0.57826876  0.50092054     0.16800
C1163       C  0.10969840  0.59605379  0.48706823     0.26200
C1164       C  0.12405321  0.60711697  0.46362335    -0.40100
C1165       C  0.13863556  0.59975858  0.45420956     0.33200
C1166       C  0.13917776  0.58212532  0.46826512     0.14900
F1167       F  0.09578331  0.56769420  0.52306674    -0.12400
F1168       F  0.15280942  0.60992537  0.43177961    -0.12900
F1169       F  0.09505158  0.60226633  0.49651557    -0.15200
F1170       F  0.15405334  0.57605827  0.45933267    -0.13800
F1171       F  0.11855025  0.53192029  0.46357219    -0.13800
F1172       F  0.13687155  0.54020475  0.58039482    -0.15200
C1173       C  0.12523092  0.65091908  0.21902154     0.14900
C1174       C  0.13455473  0.67128471  0.23403972     0.01800
C1175       C  0.14408420  0.69132888  0.21815058     0.16800
C1176       C  0.14406406  0.69098056  0.18786191     0.26200
C1177       C  0.13496494  0.67056894  0.17286017    -0.40100
C1178       C  0.12570369  0.65056955  0.18884570     0.33300
C1179       C  0.13421187  0.67146373  0.26618654     0.01900
F1180       F  0.15375999  0.71130741  0.23196289    -0.12400
F1181       F  0.11644012  0.63050269  0.17529891    -0.13000
C1182       C  0.14222678  0.65960833  0.28214148     0.16800
C1183       C  0.14092795  0.65878357  0.31231250     0.26200
C1184       C  0.13200832  0.67022811  0.32734272    -0.40100
C1185       C  0.12447521  0.68254584  0.31136418     0.33200
C1186       C  0.12536013  0.68295961  0.28112376     0.14900
F1187       F  0.15148299  0.64886329  0.26848968    -0.12400
F1188       F  0.11565043  0.69374367  0.32487794    -0.12900
F1189       F  0.14844509  0.64672497  0.32672514    -0.15200
F1190       F  0.11684602  0.69400982  0.26641507    -0.13800
F1191       F  0.11507413  0.63121968  0.23356519    -0.13800
F1192       F  0.15324216  0.71065564  0.17329707    -0.15200
C1193       C  0.36553841  0.96942863  0.54341908     0.14900
C1194       C  0.37385557  0.98273905  0.56827989     0.01800
C1195       C  0.37142648  0.97245030  0.59525375     0.16800
C1196       C  0.36144713  0.94924137  0.59730078     0.26200
C1197       C  0.35358058  0.93582521  0.57235478    -0.40100
C1198       C  0.35531453  0.94614495  0.54543302     0.33300
C1199       C  0.38669710  0.00738753  0.56601292     0.01900
F1200       F  0.37967223  0.98499878  0.61950515    -0.12400
F1201       F  0.34811497  0.93383928  0.52085512    -0.13000
C1202       C  0.37891766  0.02054724  0.57896055     0.16800
C1203       C  0.39218462  0.04389297  0.57903724     0.26200
C1204       C  0.41360826  0.05441251  0.56647371    -0.40100
C1205       C  0.42099213  0.04109495  0.55276773     0.33200
C1206       C  0.40765248  0.01785630  0.55252889     0.14900
F1207       F  0.35862007  0.01071870  0.59197324    -0.12400
F1208       F  0.44133074  0.05051757  0.53989196    -0.12900
F1209       F  0.38444018  0.05607385  0.59248985    -0.15200
F1210       F  0.41563271  0.00547520  0.54017925    -0.13800
F1211       F  0.36778039  0.97905798  0.51710615    -0.13800
F1212       F  0.35979104  0.93994219  0.62371773    -0.15200
C1213       C  0.43819810  0.85583921  0.45724174     0.14900
C1214       C  0.43682833  0.85509742  0.48760362     0.01800
C1215       C  0.45383654  0.85461520  0.50362973     0.16800
C1216       C  0.47223404  0.85560849  0.48969920     0.26200
C1217       C  0.47408610  0.85713058  0.45930960    -0.40100
C1218       C  0.45662919  0.85686732  0.44321523     0.33300
C1219       C  0.41844682  0.85618477  0.50268313     0.01900
F1220       F  0.45309900  0.85408112  0.53296831    -0.12400
F1221       F  0.45764464  0.85831430  0.41392377    -0.13000
C1222       C  0.40493823  0.83981659  0.52299611     0.16800
C1223       C  0.38844989  0.84162243  0.53826668     0.26200
C1224       C  0.38492942  0.85972590  0.53326841    -0.40100
C1225       C  0.39842676  0.87601479  0.51274128     0.33200
C1226       C  0.41501570  0.87427797  0.49774224     0.14900
F1227       F  0.40754791  0.82190546  0.52782555    -0.12400
F1228       F  0.39590319  0.89392176  0.50743040    -0.12900
F1229       F  0.37582773  0.82549140  0.55774812    -0.15200
F1230       F  0.42819738  0.89068760  0.47888652    -0.13800
F1231       F  0.42172612  0.85575706  0.44115269    -0.13800
F1232       F  0.48839807  0.85540523  0.50613680    -0.15200
C1233       C  0.32065893  0.87186094  0.77919944     0.14900
C1234       C  0.31974891  0.85365627  0.76455514     0.01800
C1235       C  0.31962297  0.83635760  0.78066792     0.16800
C1236       C  0.32121058  0.83761093  0.81082464     0.26200
C1237       C  0.32266506  0.85609146  0.82551810    -0.40100
C1238       C  0.32195206  0.87301387  0.80937581     0.33300
C1239       C  0.32027391  0.85339920  0.73250565     0.01900
F1240       F  0.31807801  0.81825072  0.76713834    -0.12400
F1241       F  0.32345491  0.89120069  0.82262885    -0.13000
C1242       C  0.33739843  0.85197322  0.71820809     0.16800
C1243       C  0.33883708  0.85303094  0.68806090     0.26200
C1244       C  0.32321455  0.85568588  0.67145650    -0.40100
C1245       C  0.30574119  0.85660706  0.68585601     0.33200
C1246       C  0.30431486  0.85547000  0.71606518     0.14900
F1247       F  0.35326957  0.85032867  0.73353064    -0.12400
F1248       F  0.29014595  0.85891556  0.67083680    -0.12900
F1249       F  0.35583061  0.85182148  0.67526421    -0.15200
F1250       F  0.28730730  0.85639875  0.72930157    -0.13800
F1251       F  0.32130243  0.88905939  0.76420472    -0.13800
F1252       F  0.32138922  0.82072866  0.82558609    -0.15200
C1253       C  0.21925406  0.74642166  0.47044380     0.14900
C1254       C  0.21540044  0.76022429  0.48892284     0.01800
C1255       C  0.19352851  0.75633431  0.49192344     0.16800
C1256       C  0.17574937  0.73860600  0.47732636     0.26200
C1257       C  0.17944056  0.72419111  0.45966509    -0.40100
C1258       C  0.20151829  0.72856499  0.45609362     0.33300
C1259       C  0.23412191  0.77817572  0.50566129     0.01900
F1260       F  0.18923559  0.76923488  0.50983737    -0.12400
F1261       F  0.20605760  0.71542616  0.43897847    -0.13000
C1262       C  0.23899901  0.80044539  0.50371813     0.16800
C1263       C  0.25701431  0.81733577  0.51903635     0.26200
C1264       C  0.27069576  0.81232169  0.53640340    -0.40100
C1265       C  0.26545028  0.78989053  0.53873591     0.33200
C1266       C  0.24735322  0.77305278  0.52361874     0.14900
F1267       F  0.22667314  0.80596603  0.48633842    -0.12400
F1268       F  0.27801013  0.78414362  0.55530433    -0.12900
F1269       F  0.26109905  0.83860480  0.51665143    -0.15200
F1270       F  0.24267496  0.75161841  0.52666026    -0.13800
F1271       F  0.24029819  0.75022799  0.46628319    -0.13800
F1272       F  0.15487381  0.73533552  0.48105379    -0.15200
loop_ 
_geom_bond_atom_site_label_1 
_geom_bond_atom_site_label_2 
_geom_bond_distance 
_geom_bond_site_symmetry_2 
_ccdc_geom_bond_type 
O1            C4   1.264       .  A
O1           Cd6   2.491       .  S
C2           O11   1.267       .  A
C2            O7   1.267       .  A
C2         C1244   1.487       .  S
O3            C9   1.265       .  A
O3           Cd6   2.449       .  S
C4           O12   1.262       .  A
C4         C1224   1.487       .  S
C5           O10   1.266       .  A
C5            O8   1.263       .  A
C5         C1264   1.487       .  S
Cd6          O13   2.487       .  S
Cd6          O12   2.468       .  S
Cd6          O11   2.469       .  S
Cd6           O7   2.455       .  S
Cd6          O10   2.490       .  S
Cd6           O8   2.457       .  S
C9           O13   1.268       .  A
C9         C1197   1.483       .  S
O14          C17   1.264       .  A
O14         Cd19   2.472       .  S
C15          O24   1.267       .  A
C15          O20   1.266       .  A
C15        C1184   1.485       .  S
O16          C22   1.268       .  A
O16         Cd19   2.489       .  S
C17          O25   1.264       .  A
C17        C1164   1.485       .  S
C18          O23   1.266       .  A
C18          O21   1.262       .  A
C18        C1257   1.489       .  S
Cd19         O26   2.442       .  S
Cd19         O25   2.476       .  S
Cd19         O24   2.469       .  S
Cd19         O20   2.451       .  S
Cd19         O23   2.498       .  S
Cd19         O21   2.462       .  S
C22          O26   1.264       .  A
C22        C1144   1.483       .  S
O27          C30   1.265       .  A
O27         Cd32   2.466       .  S
C28          O37   1.265       .  A
C28          O33   1.265       .  A
C28        C1104   1.486       .  S
O29          C35   1.268       .  A
O29         Cd32   2.475       .  S
C30          O38   1.264       .  A
C30        C1237   1.482       .  S
C31          O36   1.266       .  A
C31          O34   1.263       .  A
C31        C1117   1.486       .  S
Cd32         O39   2.445       .  S
Cd32         O38   2.461       .  S
Cd32         O37   2.458       .  S
Cd32         O33   2.479       .  S
Cd32         O36   2.489       .  S
Cd32         O34   2.448       .  S
C35          O39   1.265       .  A
C35        C1084   1.486       .  S
O40          C43   1.265       .  A
O40         Cd45   2.454       .  S
C41          O50   1.265       .  A
C41          O46   1.267       .  A
C41        C1064   1.486       .  S
O42          C48   1.266       .  A
O42         Cd45   2.488       .  S
C43          O51   1.265       .  A
C43        C1177   1.484       .  S
C44          O49   1.266       .  A
C44          O47   1.265       .  A
C44        C1124   1.484       .  S
Cd45         O52   2.444       .  S
Cd45         O51   2.481       .  S
Cd45         O50   2.444       .  S
Cd45         O46   2.482       .  S
Cd45         O49   2.471       .  S
Cd45         O47   2.449       .  S
C48          O52   1.263       .  A
C48        C1037   1.483       .  S
O53          C56   1.266       .  A
O53         Cd58   2.472       .  S
C54          O63   1.266       .  A
C54          O59   1.266       .  A
C54        C1157   1.489       .  S
O55          C61   1.267       .  A
O55         Cd58   2.497       .  S
C56          O64   1.265       .  A
C56         C997   1.487       .  S
C57          O62   1.268       .  A
C57          O60   1.264       .  A
C57         C984   1.485       .  S
Cd58         O65   2.478       .  S
Cd58         O64   2.469       .  S
Cd58         O63   2.476       .  S
Cd58         O59   2.475       .  S
Cd58         O62   2.496       .  S
Cd58         O60   2.439       .  S
C61          O65   1.265       .  A
C61        C1024   1.492       .  S
O66          C69   1.267       .  A
O66         Cd71   2.467       .  S
C67          O76   1.266       .  A
C67          O72   1.267       .  A
C67         C964   1.485       .  S
O68          C74   1.270       .  A
O68         Cd71   2.491       .  S
C69          O77   1.265       .  A
C69         C937   1.481       .  S
C70          O75   1.268       .  A
C70          O73   1.265       .  A
C70        C1017   1.491       .  S
Cd71         O78   2.444       .  S
Cd71         O77   2.455       .  S
Cd71         O76   2.462       .  S
Cd71         O72   2.473       .  S
Cd71         O75   2.509       .  S
Cd71         O73   2.452       .  S
C74          O78   1.263       .  A
C74         C917   1.488       .  S
O79          C82   1.266       .  A
O79         Cd84   2.468       .  S
C80          O89   1.264       .  A
C80          O85   1.266       .  A
C80        C1057   1.482       .  S
O81          C87   1.264       .  A
O81         Cd84   2.494       .  S
C82          O90   1.265       .  A
C82        C1004   1.485       .  S
C83          O88   1.265       .  A
C83          O86   1.264       .  A
C83         C897   1.485       .  S
Cd84         O91   2.463       .  S
Cd84         O90   2.465       .  S
Cd84         O89   2.445       .  S
Cd84         O85   2.488       .  S
Cd84         O88   2.484       .  S
Cd84         O86   2.458       .  S
C87          O91   1.262       .  A
C87         C877   1.485       .  S
O92          C95   1.265       .  A
O92         Cd97   2.443       .  S
C93         O102   1.265       .  A
C93          O98   1.264       .  A
C93         C864   1.487       .  S
O94         C100   1.263       .  A
O94         Cd97   2.439       .  S
C95         O103   1.267       .  A
C95         C957   1.487       .  S
C96         O101   1.267       .  A
C96          O99   1.263       .  A
C96         C904   1.486       .  S
Cd97        O104   2.490       .  S
Cd97        O103   2.479       .  S
Cd97        O102   2.477       .  S
Cd97         O98   2.462       .  S
Cd97        O101   2.491       .  S
Cd97         O99   2.437       .  S
C100        O104   1.267       .  A
C100        C844   1.483       .  S
O105        C108   1.267       .  A
O105       Cd110   2.495       .  S
C106        O115   1.265       .  A
C106        O111   1.267       .  A
C106        C804   1.487       .  S
O107        C113   1.269       .  A
O107       Cd110   2.496       .  S
C108        O116   1.265       .  A
C108       C1217   1.489       .  S
C109        O114   1.267       .  A
C109        O112   1.265       .  A
C109        C817   1.490       .  S
Cd110       O117   2.439       .  S
Cd110       O116   2.462       .  S
Cd110       O115   2.464       .  S
Cd110       O111   2.471       .  S
Cd110       O114   2.497       .  S
Cd110       O112   2.476       .  S
C113        O117   1.264       .  A
C113        C784   1.489       .  S
O118        C121   1.264       .  A
O118       Cd123   2.442       .  S
C119        O128   1.265       .  A
C119        O124   1.265       .  A
C119        C944   1.482       .  S
O120        C126   1.267       .  A
O120       Cd123   2.505       .  S
C121        O129   1.267       .  A
C121        C764   1.485       .  S
C122        O127   1.268       .  A
C122        O125   1.262       .  A
C122        C744   1.487       .  S
Cd123       O130   2.466       .  S
Cd123       O129   2.493       .  S
Cd123       O128   2.468       .  S
Cd123       O124   2.467       .  S
Cd123       O127   2.504       .  S
Cd123       O125   2.434       .  S
C126        O130   1.263       .  A
C126        C824   1.491       .  S
O131        C134   1.267       .  A
O131       Cd136   2.471       .  S
C132        O141   1.265       .  A
C132        O137   1.265       .  A
C132        C797   1.485       .  S
O133        C139   1.267       .  A
O133       Cd136   2.491       .  S
C134        O142   1.266       .  A
C134       C1097   1.482       .  S
C135        O140   1.263       .  A
C135        O138   1.268       .  A
C135        C697   1.485       .  S
Cd136       O143   2.454       .  S
Cd136       O142   2.451       .  S
Cd136       O141   2.486       .  S
Cd136       O137   2.459       .  S
Cd136       O140   2.438       .  S
Cd136       O138   2.507       .  S
C139        O143   1.263       .  A
C139        C724   1.485       .  S
O144        C147   1.266       .  A
O144       Cd149   2.474       .  S
C145        O154   1.266       .  A
C145        O150   1.266       .  A
C145        C857   1.485       .  S
O146        C152   1.267       .  A
O146       Cd149   2.497       .  S
C147        O155   1.265       .  A
C147        C757   1.486       .  S
C148        O153   1.266       .  A
C148        O151   1.263       .  A
C148        C717   1.488       .  S
Cd149       O156   2.453       .  S
Cd149       O155   2.456       .  S
Cd149       O154   2.462       .  S
Cd149       O150   2.470       .  S
Cd149       O153   2.481       .  S
Cd149       O151   2.467       .  S
C152        O156   1.264       .  A
C152        C684   1.486       .  S
O157        C160   1.266       .  A
O157       Cd162   2.484       .  S
C158        O167   1.265       .  A
C158        O163   1.266       .  A
C158        C637   1.489       .  S
O159        C165   1.268       .  A
O159       Cd162   2.489       .  S
C160        O168   1.265       .  A
C160        C617   1.490       .  S
C161        O166   1.266       .  A
C161        O164   1.264       .  A
C161        C664   1.487       .  S
Cd162       O169   2.436       .  S
Cd162       O168   2.468       .  S
Cd162       O167   2.467       .  S
Cd162       O163   2.477       .  S
Cd162       O166   2.491       .  S
Cd162       O164   2.447       .  S
C165        O169   1.264       .  A
C165        C884   1.485       .  S
O170        C173   1.268       .  A
O170       Cd175   2.481       .  S
C171        O180   1.264       .  A
C171        O176   1.267       .  A
C171        C604   1.482       .  S
O172        C178   1.263       .  A
O172       Cd175   2.468       .  S
C173        O181   1.265       .  A
C173        C577   1.489       .  S
C174        O179   1.266       .  A
C174        O177   1.263       .  A
C174        C657   1.485       .  S
Cd175       O182   2.495       .  S
Cd175       O181   2.457       .  S
Cd175       O180   2.454       .  S
Cd175       O176   2.500       .  S
Cd175       O179   2.497       .  S
Cd175       O177   2.446       .  S
C178        O182   1.264       .  A
C178        C704   1.487       .  S
O183        C186   1.267       .  A
O183       Cd188   2.479       .  S
C184        O193   1.265       .  A
C184        O189   1.266       .  A
C184        C644   1.486       .  S
O185        C191   1.266       .  A
O185       Cd188   2.508       .  S
C186        O194   1.266       .  A
C186        C537   1.487       .  S
C187        O192   1.265       .  A
C187        O190   1.262       .  A
C187        C977   1.485       .  S
Cd188       O195   2.443       .  S
Cd188       O194   2.456       .  S
Cd188       O193   2.475       .  S
Cd188       O189   2.463       .  S
Cd188       O192   2.501       .  S
Cd188       O190   2.462       .  S
C191        O195   1.262       .  A
C191        C557   1.488       .  S
O196        C199   1.267       .  A
O196       Cd201   2.476       .  S
C197        O206   1.263       .  A
C197        O202   1.266       .  A
C197        C517   1.488       .  S
O198        C204   1.264       .  A
O198       Cd201   2.446       .  S
C199        O207   1.266       .  A
C199        C597   1.489       .  S
C200        O205   1.266       .  A
C200        O203   1.265       .  A
C200        C564   1.487       .  S
Cd201       O208   2.494       .  S
Cd201       O207   2.463       .  S
Cd201       O206   2.465       .  S
Cd201       O202   2.489       .  S
Cd201       O205   2.482       .  S
Cd201       O203   2.461       .  S
C204        O208   1.267       .  A
C204        C777   1.485       .  S
O209        C212   1.267       .  A
O209       Cd214   2.466       .  S
C210        O219   1.265       .  A
C210        O215   1.266       .  A
C210        C484   1.487       .  S
O211        C217   1.262       .  A
O211       Cd214   2.442       .  S
C212        O220   1.266       .  A
C212        C584   1.486       .  S
C213        O218   1.266       .  A
C213        O216   1.264       .  A
C213        C504   1.484       .  S
Cd214       O221   2.501       .  S
Cd214       O220   2.472       .  S
Cd214       O219   2.469       .  S
Cd214       O215   2.479       .  S
Cd214       O218   2.479       .  S
Cd214       O216   2.470       .  S
C217        O221   1.266       .  A
C217       C1077   1.485       .  S
O222        C225   1.265       .  A
O222       Cd227   2.477       .  S
C223        O232   1.266       .  A
C223        O228   1.264       .  A
C223        C444   1.487       .  S
O224        C230   1.266       .  A
O224       Cd227   2.488       .  S
C225        O233   1.266       .  A
C225        C464   1.490       .  S
C226        O231   1.263       .  A
C226        O229   1.265       .  A
C226        C837   1.483       .  S
Cd227       O234   2.457       .  S
Cd227       O233   2.476       .  S
Cd227       O232   2.472       .  S
Cd227       O228   2.463       .  S
Cd227       O231   2.449       .  S
Cd227       O229   2.481       .  S
C230        O234   1.264       .  A
C230        C497   1.488       .  S
O235        C238   1.266       .  A
O235       Cd240   2.478       .  S
C236        O245   1.267       .  A
C236        O241   1.266       .  A
C236        C524   1.488       .  S
O237        C243   1.267       .  A
O237       Cd240   2.515       .  S
C238        O246   1.266       .  A
C238        C477   1.486       .  S
C239        O244   1.266       .  A
C239        O242   1.264       .  A
C239        C424   1.491       .  S
Cd240       O247   2.444       .  S
Cd240       O246   2.470       .  S
Cd240       O245   2.476       .  S
Cd240       O241   2.455       .  S
Cd240       O244   2.500       .  S
Cd240       O242   2.481       .  S
C243        O247   1.261       .  A
C243       C1204   1.486       .  S
O248        C251   1.267       .  A
O248       Cd253   2.477       .  S
C249        O258   1.265       .  A
C249        O254   1.266       .  A
C249        C457   1.489       .  S
O250        C256   1.267       .  A
O250       Cd253   2.491       .  S
C251        O259   1.266       .  A
C251        C397   1.489       .  S
C252        O257   1.262       .  A
C252        O255   1.267       .  A
C252        C924   1.483       .  S
Cd253       O260   2.464       .  S
Cd253       O259   2.464       .  S
Cd253       O258   2.479       .  S
Cd253       O254   2.474       .  S
Cd253       O257   2.458       .  S
Cd253       O255   2.496       .  S
C256        O260   1.264       .  A
C256        C417   1.491       .  S
O261        C264   1.265       .  A
O261       Cd266   2.479       .  S
C262        O271   1.266       .  A
C262        O267   1.266       .  A
C262        C364   1.486       .  S
O263        C269   1.267       .  A
O263       Cd266   2.487       .  S
C264        O272   1.264       .  A
C264        C437   1.486       .  S
C265        O270   1.265       .  A
C265        O268   1.263       .  A
C265        C377   1.487       .  S
Cd266       O273   2.450       .  S
Cd266       O272   2.469       .  S
Cd266       O271   2.465       .  S
Cd266       O267   2.473       .  S
Cd266       O270   2.499       .  S
Cd266       O268   2.450       .  S
C269        O273   1.265       .  A
C269        C677   1.487       .  S
O274        C277   1.264       .  A
O274       Cd279   2.475       .  S
C275        O284   1.267       .  A
C275        O280   1.266       .  A
C275        C344   1.486       .  S
O276        C282   1.266       .  A
O276       Cd279   2.455       .  S
C277        O285   1.263       .  A
C277        C624   1.486       .  S
C278        O283   1.264       .  A
C278        O281   1.262       .  A
C278        C384   1.487       .  S
Cd279       O286   2.475       .  S
Cd279       O285   2.476       .  S
Cd279       O284   2.457       .  S
Cd279       O280   2.473       .  S
Cd279       O283   2.502       .  S
Cd279       O281   2.468       .  S
C282        O286   1.266       .  A
C282       C1044   1.486       .  S
O287        C290   1.266       .  A
O287       Cd292   2.465       .  S
C288        O297   1.265       .  A
C288        O293   1.266       .  A
C288        C404   1.487       .  S
O289        C295   1.263       .  A
O289       Cd292   2.481       .  S
C290        O298   1.265       .  A
C290        C357   1.484       .  S
C291        O296   1.267       .  A
C291        O294   1.264       .  A
C291        C317   1.486       .  S
Cd292       O299   2.477       .  S
Cd292       O298   2.463       .  S
Cd292       O297   2.471       .  S
Cd292       O293   2.475       .  S
Cd292       O296   2.498       .  S
Cd292       O294   2.435       .  S
C295        O299   1.263       .  A
C295        C737   1.486       .  S
O300        C303   1.265       .  A
O300       Cd305   2.479       .  S
C301        O310   1.264       .  A
C301        O306   1.266       .  A
C301        C544   1.487       .  S
O302        C308   1.267       .  A
O302       Cd305   2.485       .  S
C303        O311   1.265       .  A
C303        C337   1.487       .  S
C304        O309   1.265       .  A
C304        O307   1.264       .  A
C304        C324   1.487       .  S
Cd305       O312   2.445       .  S
Cd305       O311   2.471       .  S
Cd305       O310   2.456       .  S
Cd305       O306   2.482       .  S
Cd305       O309   2.493       .  S
Cd305       O307   2.452       .  S
C308        O312   1.264       .  A
C308       C1137   1.486       .  S
C313        C314   1.404       .  A
C313        C318   1.403       .  A
C313        F331   1.358       .  S
C314        C319   1.479       .  S
C314        C315   1.402       .  A
C315        C316   1.395       .  A
C315        F320   1.358       .  S
C316        C317   1.411       .  A
C316        F332   1.358       .  S
C317        C318   1.412       .  A
C318        F321   1.358       .  S
C319        C322   1.403       .  A
C319        C326   1.403       .  A
C322        C323   1.403       .  A
C322        F327   1.358       .  S
C323        C324   1.413       .  A
C323        F329   1.358       .  S
C324        C325   1.410       .  A
C325        C326   1.395       .  A
C325        F328   1.358       .  S
C326        F330   1.358       .  S
C333        C334   1.405       .  A
C333        C338   1.401       .  A
C333        F351   1.358       .  S
C334        C339   1.483       .  S
C334        C335   1.404       .  A
C335        C336   1.398       .  A
C335        F340   1.358       .  S
C336        C337   1.410       .  A
C336        F352   1.357       .  S
C337        C338   1.411       .  A
C338        F341   1.358       .  S
C339        C342   1.405       .  A
C339        C346   1.404       .  A
C342        C343   1.403       .  A
C342        F347   1.358       .  S
C343        C344   1.412       .  A
C343        F349   1.358       .  S
C344        C345   1.409       .  A
C345        C346   1.396       .  A
C345        F348   1.358       .  S
C346        F350   1.358       .  S
C353        C354   1.404       .  A
C353        C358   1.399       .  A
C353        F371   1.358       .  S
C354        C359   1.481       .  S
C354        C355   1.404       .  A
C355        C356   1.399       .  A
C355        F360   1.358       .  S
C356        C357   1.410       .  A
C356        F372   1.358       .  S
C357        C358   1.410       .  A
C358        F361   1.358       .  S
C359        C362   1.404       .  A
C359        C366   1.403       .  A
C362        C363   1.401       .  A
C362        F367   1.358       .  S
C363        C364   1.411       .  A
C363        F369   1.358       .  S
C364        C365   1.410       .  A
C365        C366   1.398       .  A
C365        F368   1.358       .  S
C366        F370   1.358       .  S
C373        C374   1.405       .  A
C373        C378   1.404       .  A
C373        F391   1.358   1_556  S
C374        C379   1.482   1_556  S
C374        C375   1.403       .  A
C375        C376   1.395       .  A
C375        F380   1.358       .  S
C376        C377   1.410       .  A
C376        F392   1.358       .  S
C377        C378   1.412       .  A
C378        F381   1.358       .  S
C379        C382   1.404       .  A
C379        C386   1.404       .  A
C382        C383   1.397       .  A
C382        F387   1.358       .  S
C383        C384   1.410       .  A
C383        F389   1.358       .  S
C384        C385   1.411       .  A
C385        C386   1.403       .  A
C385        F388   1.357       .  S
C386        F390   1.358   1_554  S
C393        C394   1.407       .  A
C393        C398   1.401       .  A
C393        F411   1.358       .  S
C394        C399   1.489       .  S
C394        C395   1.406       .  A
C395        C396   1.400       .  A
C395        F400   1.358       .  S
C396        C397   1.411       .  A
C396        F412   1.358       .  S
C397        C398   1.410       .  A
C398        F401   1.358       .  S
C399        C402   1.407       .  A
C399        C406   1.406       .  A
C402        C403   1.400       .  A
C402        F407   1.358       .  S
C403        C404   1.409       .  A
C403        F409   1.358       .  S
C404        C405   1.410       .  A
C405        C406   1.401       .  A
C405        F408   1.358       .  S
C406        F410   1.358       .  S
C413        C414   1.406       .  A
C413        C418   1.403       .  A
C413        F431   1.358       .  S
C414        C419   1.487       .  S
C414        C415   1.404       .  A
C415        C416   1.400       .  A
C415        F420   1.358       .  S
C416        C417   1.412       .  A
C416        F432   1.358       .  S
C417        C418   1.411       .  A
C418        F421   1.358       .  S
C419        C422   1.405       .  A
C419        C426   1.405       .  A
C422        C423   1.402       .  A
C422        F427   1.358       .  S
C423        C424   1.411       .  A
C423        F429   1.358       .  S
C424        C425   1.412       .  A
C425        C426   1.401       .  A
C425        F428   1.358       .  S
C426        F430   1.358       .  S
C433        C434   1.406       .  A
C433        C438   1.400       .  A
C433        F451   1.358       .  S
C434        C439   1.486   1_556  S
C434        C435   1.406   1_556  A
C435        C436   1.399   1_554  A
C435        F440   1.358       .  S
C436        C437   1.410       .  A
C436        F452   1.358   1_556  S
C437        C438   1.409       .  A
C438        F441   1.358       .  S
C439        C442   1.406       .  A
C439        C446   1.406   1_554  A
C442        C443   1.399       .  A
C442        F447   1.358       .  S
C443        C444   1.410       .  A
C443        F449   1.358       .  S
C444        C445   1.411       .  A
C445        C446   1.399   1_554  A
C445        F448   1.358   1_554  S
C446        F450   1.358       .  S
C453        C454   1.404       .  A
C453        C458   1.401       .  A
C453        F471   1.358       .  S
C454        C459   1.483       .  S
C454        C455   1.404       .  A
C455        C456   1.400       .  A
C455        F460   1.358       .  S
C456        C457   1.411       .  A
C456        F472   1.357       .  S
C457        C458   1.412       .  A
C458        F461   1.358       .  S
C459        C462   1.404       .  A
C459        C466   1.403       .  A
C462        C463   1.401       .  A
C462        F467   1.358       .  S
C463        C464   1.412       .  A
C463        F469   1.358       .  S
C464        C465   1.412       .  A
C465        C466   1.401       .  A
C465        F468   1.357       .  S
C466        F470   1.358       .  S
C473        C474   1.405       .  A
C473        C478   1.400       .  A
C473        F491   1.358       .  S
C474        C479   1.485       .  S
C474        C475   1.405       .  A
C475        C476   1.401       .  A
C475        F480   1.358       .  S
C476        C477   1.410       .  A
C476        F492   1.358       .  S
C477        C478   1.409       .  A
C478        F481   1.358       .  S
C479        C482   1.405       .  A
C479        C486   1.405       .  A
C482        C483   1.400       .  A
C482        F487   1.358       .  S
C483        C484   1.411       .  A
C483        F489   1.358       .  S
C484        C485   1.410       .  A
C485        C486   1.401       .  A
C485        F488   1.358       .  S
C486        F490   1.358       .  S
C493        C494   1.403       .  A
C493        C498   1.402       .  A
C493        F511   1.358   1_554  S
C494        C499   1.478   1_554  S
C494        C495   1.402       .  A
C495        C496   1.397       .  A
C495        F500   1.358       .  S
C496        C497   1.411       .  A
C496        F512   1.358       .  S
C497        C498   1.412       .  A
C498        F501   1.358       .  S
C499        C502   1.403       .  A
C499        C506   1.403   1_556  A
C502        C503   1.400       .  A
C502        F507   1.358       .  S
C503        C504   1.410       .  A
C503        F509   1.358       .  S
C504        C505   1.410       .  A
C505        C506   1.399   1_556  A
C505        F508   1.358   1_556  S
C506        F510   1.358       .  S
C513        C514   1.403       .  A
C513        C518   1.400       .  A
C513        F531   1.358       .  S
C514        C519   1.482       .  S
C514        C515   1.405       .  A
C515        C516   1.400       .  A
C515        F520   1.358       .  S
C516        C517   1.410       .  A
C516        F532   1.358       .  S
C517        C518   1.412       .  A
C518        F521   1.358       .  S
C519        C522   1.404       .  A
C519        C526   1.403       .  A
C522        C523   1.401       .  A
C522        F527   1.358       .  S
C523        C524   1.411       .  A
C523        F529   1.358       .  S
C524        C525   1.411       .  A
C525        C526   1.398       .  A
C525        F528   1.358       .  S
C526        F530   1.358       .  S
C533        C534   1.404       .  A
C533        C538   1.398       .  A
C533        F551   1.358       .  S
C534        C539   1.482       .  S
C534        C535   1.404       .  A
C535        C536   1.401       .  A
C535        F540   1.358       .  S
C536        C537   1.411       .  A
C536        F552   1.358       .  S
C537        C538   1.411       .  A
C538        F541   1.358       .  S
C539        C542   1.405       .  A
C539        C546   1.403       .  A
C542        C543   1.401       .  A
C542        F547   1.358       .  S
C543        C544   1.411       .  A
C543        F549   1.358       .  S
C544        C545   1.411       .  A
C545        C546   1.398       .  A
C545        F548   1.358       .  S
C546        F550   1.358       .  S
C553        C554   1.401       .  A
C553        C558   1.396       .  A
C553        F571   1.358       .  S
C554        C559   1.478       .  S
C554        C555   1.403       .  A
C555        C556   1.404       .  A
C555        F560   1.358       .  S
C556        C557   1.412       .  A
C556        F572   1.357       .  S
C557        C558   1.412       .  A
C558        F561   1.358       .  S
C559        C562   1.403       .  A
C559        C566   1.403       .  A
C562        C563   1.398       .  A
C562        F567   1.358       .  S
C563        C564   1.411       .  A
C563        F569   1.358       .  S
C564        C565   1.412       .  A
C565        C566   1.402       .  A
C565        F568   1.358       .  S
C566        F570   1.358       .  S
C573        C574   1.405       .  A
C573        C578   1.400       .  A
C573        F591   1.358       .  S
C574        C579   1.485   1_554  S
C574        C575   1.404   1_554  A
C575        C576   1.400   1_556  A
C575        F580   1.358       .  S
C576        C577   1.412       .  A
C576        F592   1.358   1_554  S
C577        C578   1.410       .  A
C578        F581   1.357       .  S
C579        C582   1.405   1_556  A
C579        C586   1.405       .  A
C582        C583   1.401   1_554  A
C582        F587   1.358       .  S
C583        C584   1.410       .  A
C583        F589   1.358   1_556  S
C584        C585   1.409       .  A
C585        C586   1.399       .  A
C585        F588   1.358       .  S
C586        F590   1.358       .  S
C593        C594   1.405       .  A
C593        C598   1.400       .  A
C593        F611   1.358       .  S
C594        C599   1.487       .  S
C594        C595   1.406       .  A
C595        C596   1.401       .  A
C595        F600   1.358       .  S
C596        C597   1.411       .  A
C596        F612   1.358       .  S
C597        C598   1.411       .  A
C598        F601   1.358       .  S
C599        C602   1.406       .  A
C599        C606   1.407       .  A
C602        C603   1.398       .  A
C602        F607   1.358       .  S
C603        C604   1.408       .  A
C603        F609   1.358       .  S
C604        C605   1.408       .  A
C605        C606   1.403       .  A
C605        F608   1.358       .  S
C606        F610   1.358       .  S
C613        C614   1.403       .  A
C613        C618   1.401       .  A
C613        F631   1.358       .  S
C614        C619   1.480   1_556  S
C614        C615   1.402   1_556  A
C615        C616   1.399   1_554  A
C615        F620   1.358       .  S
C616        C617   1.412       .  A
C616        F632   1.358   1_556  S
C617        C618   1.412       .  A
C618        F621   1.357       .  S
C619        C622   1.402       .  A
C619        C626   1.404       .  A
C622        C623   1.399       .  A
C622        F627   1.358       .  S
C623        C624   1.410       .  A
C623        F629   1.357       .  S
C624        C625   1.412       .  A
C625        C626   1.401       .  A
C625        F628   1.358       .  S
C626        F630   1.358   1_554  S
C633        C634   1.405       .  A
C633        C638   1.400       .  A
C633        F651   1.358       .  S
C634        C639   1.486       .  S
C634        C635   1.406       .  A
C635        C636   1.400       .  A
C635        F640   1.358       .  S
C636        C637   1.410       .  A
C636        F652   1.358       .  S
C637        C638   1.411       .  A
C638        F641   1.358       .  S
C639        C642   1.406       .  A
C639        C646   1.406       .  A
C642        C643   1.402       .  A
C642        F647   1.358       .  S
C643        C644   1.411       .  A
C643        F649   1.358       .  S
C644        C645   1.409       .  A
C645        C646   1.397       .  A
C645        F648   1.358       .  S
C646        F650   1.358       .  S
C653        C654   1.403   1_554  A
C653        C658   1.396       .  A
C653        F671   1.358       .  S
C654        C659   1.480       .  S
C654        C655   1.404   1_556  A
C655        C656   1.403       .  A
C655        F660   1.358   1_554  S
C656        C657   1.410       .  A
C656        F672   1.358       .  S
C657        C658   1.410       .  A
C658        F661   1.358       .  S
C659        C662   1.404       .  A
C659        C666   1.403       .  A
C662        C663   1.402       .  A
C662        F667   1.358   1_556  S
C663        C664   1.412       .  A
C663        F669   1.358       .  S
C664        C665   1.411       .  A
C665        C666   1.396       .  A
C665        F668   1.358       .  S
C666        F670   1.358       .  S
C673        C674   1.404       .  A
C673        C678   1.403       .  A
C673        F691   1.358       .  S
C674        C679   1.483       .  S
C674        C675   1.404       .  A
C675        C676   1.397       .  A
C675        F680   1.358       .  S
C676        C677   1.410       .  A
C676        F692   1.358       .  S
C677        C678   1.412       .  A
C678        F681   1.357       .  S
C679        C682   1.405       .  A
C679        C686   1.404       .  A
C682        C683   1.404       .  A
C682        F687   1.358       .  S
C683        C684   1.411       .  A
C683        F689   1.358       .  S
C684        C685   1.409       .  A
C685        C686   1.397       .  A
C685        F688   1.358       .  S
C686        F690   1.358       .  S
C693        C694   1.408       .  A
C693        C698   1.402       .  A
C693        F711   1.358       .  S
C694        C699   1.487   1_565  S
C694        C695   1.405       .  A
C695        C696   1.398       .  A
C695        F700   1.358       .  S
C696        C697   1.410       .  A
C696        F712   1.358       .  S
C697        C698   1.408       .  A
C698        F701   1.358       .  S
C699        C702   1.407       .  A
C699        C706   1.405       .  A
C702        C703   1.402       .  A
C702        F707   1.358       .  S
C703        C704   1.410       .  A
C703        F709   1.358       .  S
C704        C705   1.410       .  A
C705        C706   1.398       .  A
C705        F708   1.358       .  S
C706        F710   1.358       .  S
C713        C714   1.403       .  A
C713        C718   1.400       .  A
C713        F731   1.358       .  S
C714        C719   1.480   1_556  S
C714        C715   1.403   1_556  A
C715        C716   1.400   1_554  A
C715        F720   1.358       .  S
C716        C717   1.411       .  A
C716        F732   1.357       .  S
C717        C718   1.412       .  A
C718        F721   1.358       .  S
C719        C722   1.403       .  A
C719        C726   1.404       .  A
C722        C723   1.398       .  A
C722        F727   1.358       .  S
C723        C724   1.411       .  A
C723        F729   1.358       .  S
C724        C725   1.409       .  A
C725        C726   1.402       .  A
C725        F728   1.357       .  S
C726        F730   1.358   1_554  S
C733        C734   1.405       .  A
C733        C738   1.399       .  A
C733        F751   1.358       .  S
C734        C739   1.484       .  S
C734        C735   1.405       .  A
C735        C736   1.400       .  A
C735        F740   1.358       .  S
C736        C737   1.410       .  A
C736        F752   1.358       .  S
C737        C738   1.410       .  A
C738        F741   1.358       .  S
C739        C742   1.404       .  A
C739        C746   1.406       .  A
C742        C743   1.396       .  A
C742        F747   1.358       .  S
C743        C744   1.412       .  A
C743        F749   1.358       .  S
C744        C745   1.410       .  A
C745        C746   1.402       .  A
C745        F748   1.357       .  S
C746        F750   1.358       .  S
C753        C754   1.403       .  A
C753        C758   1.398       .  A
C753        F771   1.358       .  S
C754        C759   1.482       .  S
C754        C755   1.405       .  A
C755        C756   1.400       .  A
C755        F760   1.358       .  S
C756        C757   1.411       .  A
C756        F772   1.358       .  S
C757        C758   1.411       .  A
C758        F761   1.358       .  S
C759        C762   1.403       .  A
C759        C766   1.406       .  A
C762        C763   1.397       .  A
C762        F767   1.358       .  S
C763        C764   1.411       .  A
C763        F769   1.358       .  S
C764        C765   1.409       .  A
C765        C766   1.402       .  A
C765        F768   1.358       .  S
C766        F770   1.358       .  S
C773        C774   1.407       .  A
C773        C778   1.397       .  A
C773        F791   1.358       .  S
C774        C779   1.490   1_545  S
C774        C775   1.408       .  A
C775        C776   1.402       .  A
C775        F780   1.358       .  S
C776        C777   1.409       .  A
C776        F792   1.358       .  S
C777        C778   1.409       .  A
C778        F781   1.358       .  S
C779        C782   1.407       .  A
C779        C786   1.407       .  A
C782        C783   1.403       .  A
C782        F787   1.357       .  S
C783        C784   1.410       .  A
C783        F789   1.357       .  S
C784        C785   1.411       .  A
C785        C786   1.397       .  A
C785        F788   1.358       .  S
C786        F790   1.358       .  S
C793        C794   1.405       .  A
C793        C798   1.398       .  A
C793        F811   1.358       .  S
C794        C799   1.484       .  S
C794        C795   1.406       .  A
C795        C796   1.402       .  A
C795        F800   1.358       .  S
C796        C797   1.410       .  A
C796        F812   1.358       .  S
C797        C798   1.409       .  A
C798        F801   1.358       .  S
C799        C802   1.405       .  A
C799        C806   1.405       .  A
C802        C803   1.399       .  A
C802        F807   1.358       .  S
C803        C804   1.410       .  A
C803        F809   1.357       .  S
C804        C805   1.412       .  A
C805        C806   1.401       .  A
C805        F808   1.358       .  S
C806        F810   1.358       .  S
C813        C814   1.405       .  A
C813        C818   1.401       .  A
C813        F831   1.358       .  S
C814        C819   1.487       .  S
C814        C815   1.405       .  A
C815        C816   1.403       .  A
C815        F820   1.358       .  S
C816        C817   1.411       .  A
C816        F832   1.358       .  S
C817        C818   1.411       .  A
C818        F821   1.358       .  S
C819        C822   1.405       .  A
C819        C826   1.404       .  A
C822        C823   1.404       .  A
C822        F827   1.357       .  S
C823        C824   1.411       .  A
C823        F829   1.357       .  S
C824        C825   1.412       .  A
C825        C826   1.400       .  A
C825        F828   1.358       .  S
C826        F830   1.358       .  S
C833        C834   1.404       .  A
C833        C838   1.397       .  A
C833        F851   1.358       .  S
C834        C839   1.480       .  S
C834        C835   1.404       .  A
C835        C836   1.400       .  A
C835        F840   1.358       .  S
C836        C837   1.410       .  A
C836        F852   1.358       .  S
C837        C838   1.410       .  A
C838        F841   1.358       .  S
C839        C842   1.405       .  A
C839        C846   1.404       .  A
C842        C843   1.400       .  A
C842        F847   1.358       .  S
C843        C844   1.409       .  A
C843        F849   1.357       .  S
C844        C845   1.411       .  A
C845        C846   1.397       .  A
C845        F848   1.358       .  S
C846        F850   1.358       .  S
C853        C854   1.405       .  A
C853        C858   1.400       .  A
C853        F871   1.358       .  S
C854        C859   1.484   1_556  S
C854        C855   1.405   1_556  A
C855        C856   1.398       .  A
C855        F860   1.358       .  S
C856        C857   1.410   1_554  A
C856        F872   1.358       .  S
C857        C858   1.410       .  A
C858        F861   1.358       .  S
C859        C862   1.406   1_554  A
C859        C866   1.404       .  A
C862        C863   1.400   1_556  A
C862        F867   1.358       .  S
C863        C864   1.411       .  A
C863        F869   1.358   1_554  S
C864        C865   1.411       .  A
C865        C866   1.399       .  A
C865        F868   1.358       .  S
C866        F870   1.358       .  S
C873        C874   1.404       .  A
C873        C878   1.401       .  A
C873        F891   1.358       .  S
C874        C879   1.479   1_455  S
C874        C875   1.403       .  A
C875        C876   1.398       .  A
C875        F880   1.358       .  S
C876        C877   1.410       .  A
C876        F892   1.358       .  S
C877        C878   1.410       .  A
C878        F881   1.358       .  S
C879        C882   1.404       .  A
C879        C886   1.403       .  A
C882        C883   1.403       .  A
C882        F887   1.358       .  S
C883        C884   1.411       .  A
C883        F889   1.358       .  S
C884        C885   1.410       .  A
C885        C886   1.395       .  A
C885        F888   1.358       .  S
C886        F890   1.358       .  S
C893        C894   1.404   1_554  A
C893        C898   1.401   1_554  A
C893        F911   1.358       .  S
C894        C899   1.481   1_556  S
C894        C895   1.404       .  A
C895        C896   1.397       .  A
C895        F900   1.358       .  S
C896        C897   1.409       .  A
C896        F912   1.358       .  S
C897        C898   1.411       .  A
C898        F901   1.358       .  S
C899        C902   1.405       .  A
C899        C906   1.403       .  A
C902        C903   1.403       .  A
C902        F907   1.358       .  S
C903        C904   1.411       .  A
C903        F909   1.358       .  S
C904        C905   1.411       .  A
C905        C906   1.395       .  A
C905        F908   1.358       .  S
C906        F910   1.358       .  S
C913        C914   1.404       .  A
C913        C918   1.400       .  A
C913        F931   1.358       .  S
C914        C919   1.482       .  S
C914        C915   1.404       .  A
C915        C916   1.401       .  A
C915        F920   1.357       .  S
C916        C917   1.409       .  A
C916        F932   1.357       .  S
C917        C918   1.413       .  A
C918        F921   1.358       .  S
C919        C922   1.404       .  A
C919        C926   1.405       .  A
C922        C923   1.400       .  A
C922        F927   1.358       .  S
C923        C924   1.410       .  A
C923        F929   1.358       .  S
C924        C925   1.408       .  A
C925        C926   1.400       .  A
C925        F928   1.357       .  S
C926        F930   1.358       .  S
C933        C934   1.404       .  A
C933        C938   1.398       .  A
C933        F951   1.358       .  S
C934        C939   1.480       .  S
C934        C935   1.404       .  A
C935        C936   1.399       .  A
C935        F940   1.358       .  S
C936        C937   1.409       .  A
C936        F952   1.358       .  S
C937        C938   1.409       .  A
C938        F941   1.358       .  S
C939        C942   1.404       .  A
C939        C946   1.405       .  A
C942        C943   1.399       .  A
C942        F947   1.358       .  S
C943        C944   1.409       .  A
C943        F949   1.358       .  S
C944        C945   1.409       .  A
C945        C946   1.399       .  A
C945        F948   1.358       .  S
C946        F950   1.358       .  S
C953        C954   1.406       .  A
C953        C958   1.401       .  A
C953        F971   1.358       .  S
C954        C959   1.484       .  S
C954        C955   1.404       .  A
C955        C956   1.397       .  A
C955        F960   1.358       .  S
C956        C957   1.411       .  A
C956        F972   1.358       .  S
C957        C958   1.411       .  A
C958        F961   1.358       .  S
C959        C962   1.405       .  A
C959        C966   1.406       .  A
C962        C963   1.399       .  A
C962        F967   1.358       .  S
C963        C964   1.410       .  A
C963        F969   1.358       .  S
C964        C965   1.409       .  A
C965        C966   1.400       .  A
C965        F968   1.358       .  S
C966        F970   1.358       .  S
C973        C974   1.405       .  A
C973        C978   1.402       .  A
C973        F991   1.358       .  S
C974        C979   1.484   1_655  S
C974        C975   1.405       .  A
C975        C976   1.399       .  A
C975        F980   1.358       .  S
C976        C977   1.409       .  A
C976        F992   1.358       .  S
C977        C978   1.410       .  A
C978        F981   1.357       .  S
C979        C982   1.406       .  A
C979        C986   1.404       .  A
C982        C983   1.404       .  A
C982        F987   1.358       .  S
C983        C984   1.410       .  A
C983        F989   1.358       .  S
C984        C985   1.410       .  A
C985        C986   1.396       .  A
C985        F988   1.358       .  S
C986        F990   1.358       .  S
C993        C994   1.403       .  A
C993        C998   1.400       .  A
C993       F1011   1.358       .  S
C994        C999   1.478       .  S
C994        C995   1.402       .  A
C995        C996   1.400       .  A
C995       F1000   1.358       .  S
C996        C997   1.411       .  A
C996       F1012   1.358       .  S
C997        C998   1.412       .  A
C998       F1001   1.358       .  S
C999       C1002   1.403       .  A
C999       C1006   1.403       .  A
C1002      C1003   1.400       .  A
C1002      F1007   1.358       .  S
C1003      C1004   1.411       .  A
C1003      F1009   1.358       .  S
C1004      C1005   1.410       .  A
C1005      C1006   1.399       .  A
C1005      F1008   1.358       .  S
C1006      F1010   1.358       .  S
C1013      C1014   1.404       .  A
C1013      C1018   1.398       .  A
C1013      F1031   1.358       .  S
C1014      C1019   1.486       .  S
C1014      C1015   1.406       .  A
C1015      C1016   1.406       .  A
C1015      F1020   1.358       .  S
C1016      C1017   1.412       .  A
C1016      F1032   1.357       .  S
C1017      C1018   1.411       .  A
C1018      F1021   1.358       .  S
C1019      C1022   1.405       .  A
C1019      C1026   1.405       .  A
C1022      C1023   1.404       .  A
C1022      F1027   1.357       .  S
C1023      C1024   1.412       .  A
C1023      F1029   1.358       .  S
C1024      C1025   1.411       .  A
C1025      C1026   1.400       .  A
C1025      F1028   1.358       .  S
C1026      F1030   1.358       .  S
C1033      C1034   1.404       .  A
C1033      C1038   1.401       .  A
C1033      F1051   1.358       .  S
C1034      C1039   1.481   1_455  S
C1034      C1035   1.404       .  A
C1035      C1036   1.396       .  A
C1035      F1040   1.358       .  S
C1036      C1037   1.410       .  A
C1036      F1052   1.358       .  S
C1037      C1038   1.410       .  A
C1038      F1041   1.358       .  S
C1039      C1042   1.403       .  A
C1039      C1046   1.405       .  A
C1042      C1043   1.397       .  A
C1042      F1047   1.358       .  S
C1043      C1044   1.411       .  A
C1043      F1049   1.358       .  S
C1044      C1045   1.411       .  A
C1045      C1046   1.400       .  A
C1045      F1048   1.358       .  S
C1046      F1050   1.358       .  S
C1053      C1054   1.406       .  A
C1053      C1058   1.402       .  A
C1053      F1071   1.358       .  S
C1054      C1059   1.482   1_556  S
C1054      C1055   1.404   1_556  A
C1055      C1056   1.397   1_554  A
C1055      F1060   1.358       .  S
C1056      C1057   1.409       .  A
C1056      F1072   1.358   1_556  S
C1057      C1058   1.409       .  A
C1058      F1061   1.358       .  S
C1059      C1062   1.403   1_554  A
C1059      C1066   1.405       .  A
C1062      C1063   1.397   1_556  A
C1062      F1067   1.358       .  S
C1063      C1064   1.411       .  A
C1063      F1069   1.358   1_554  S
C1064      C1065   1.411       .  A
C1065      C1066   1.401       .  A
C1065      F1068   1.358       .  S
C1066      F1070   1.358       .  S
C1073      C1074   1.405       .  A
C1073      C1078   1.402       .  A
C1073      F1091   1.358       .  S
C1074      C1079   1.480   1_545  S
C1074      C1075   1.402       .  A
C1075      C1076   1.396       .  A
C1075      F1080   1.358       .  S
C1076      C1077   1.410       .  A
C1076      F1092   1.358       .  S
C1077      C1078   1.410       .  A
C1078      F1081   1.358       .  S
C1079      C1082   1.404       .  A
C1079      C1086   1.403       .  A
C1082      C1083   1.397       .  A
C1082      F1087   1.358       .  S
C1083      C1084   1.411       .  A
C1083      F1089   1.358       .  S
C1084      C1085   1.411       .  A
C1085      C1086   1.401       .  A
C1085      F1088   1.357       .  S
C1086      F1090   1.358       .  S
C1093      C1094   1.404   1_556  A
C1093      C1098   1.398   1_556  A
C1093      F1111   1.358       .  S
C1094      C1099   1.480   1_554  S
C1094      C1095   1.405       .  A
C1095      C1096   1.400       .  A
C1095      F1100   1.358       .  S
C1096      C1097   1.409       .  A
C1096      F1112   1.358       .  S
C1097      C1098   1.409       .  A
C1098      F1101   1.358   1_554  S
C1099      C1102   1.404       .  A
C1099      C1106   1.403   1_556  A
C1102      C1103   1.401       .  A
C1102      F1107   1.358       .  S
C1103      C1104   1.411       .  A
C1103      F1109   1.358       .  S
C1104      C1105   1.410       .  A
C1105      C1106   1.398   1_556  A
C1105      F1108   1.358   1_556  S
C1106      F1110   1.358       .  S
C1113      C1114   1.400       .  A
C1113      C1118   1.396       .  A
C1113      F1131   1.358       .  S
C1114      C1119   1.473   1_556  S
C1114      C1115   1.402       .  A
C1115      C1116   1.402       .  A
C1115      F1120   1.358   1_556  S
C1116      C1117   1.412       .  A
C1116      F1132   1.358       .  S
C1117      C1118   1.412       .  A
C1118      F1121   1.357       .  S
C1119      C1122   1.401       .  A
C1119      C1126   1.402   1_554  A
C1122      C1123   1.397       .  A
C1122      F1127   1.358       .  S
C1123      C1124   1.411       .  A
C1123      F1129   1.358       .  S
C1124      C1125   1.411       .  A
C1125      C1126   1.401   1_554  A
C1125      F1128   1.358   1_554  S
C1126      F1130   1.358       .  S
C1133      C1134   1.403       .  A
C1133      C1138   1.401       .  A
C1133      F1151   1.358       .  S
C1134      C1139   1.477   1_655  S
C1134      C1135   1.402       .  A
C1135      C1136   1.397       .  A
C1135      F1140   1.358       .  S
C1136      C1137   1.412       .  A
C1136      F1152   1.358       .  S
C1137      C1138   1.411       .  A
C1138      F1141   1.358       .  S
C1139      C1142   1.404       .  A
C1139      C1146   1.402       .  A
C1142      C1143   1.402       .  A
C1142      F1147   1.358       .  S
C1143      C1144   1.410       .  A
C1143      F1149   1.358       .  S
C1144      C1145   1.410       .  A
C1145      C1146   1.397       .  A
C1145      F1148   1.358       .  S
C1146      F1150   1.358       .  S
C1153      C1154   1.405       .  A
C1153      C1158   1.400       .  A
C1153      F1171   1.358       .  S
C1154      C1159   1.486       .  S
C1154      C1155   1.405       .  A
C1155      C1156   1.400       .  A
C1155      F1160   1.358       .  S
C1156      C1157   1.411       .  A
C1156      F1172   1.358       .  S
C1157      C1158   1.411       .  A
C1158      F1161   1.358       .  S
C1159      C1162   1.406       .  A
C1159      C1166   1.406       .  A
C1162      C1163   1.400       .  A
C1162      F1167   1.358       .  S
C1163      C1164   1.410       .  A
C1163      F1169   1.358       .  S
C1164      C1165   1.409       .  A
C1165      C1166   1.399       .  A
C1165      F1168   1.358       .  S
C1166      F1170   1.358       .  S
C1173      C1174   1.406       .  A
C1173      C1178   1.397       .  A
C1173      F1191   1.358       .  S
C1174      C1179   1.487       .  S
C1174      C1175   1.408       .  A
C1175      C1176   1.401       .  A
C1175      F1180   1.358       .  S
C1176      C1177   1.409       .  A
C1176      F1192   1.358       .  S
C1177      C1178   1.408       .  A
C1178      F1181   1.358       .  S
C1179      C1182   1.407       .  A
C1179      C1186   1.407       .  A
C1182      C1183   1.398       .  A
C1182      F1187   1.358       .  S
C1183      C1184   1.410       .  A
C1183      F1189   1.358       .  S
C1184      C1185   1.410       .  A
C1185      C1186   1.400       .  A
C1185      F1188   1.358       .  S
C1186      F1190   1.358       .  S
C1193      C1194   1.405       .  A
C1193      C1198   1.402       .  A
C1193      F1211   1.358       .  S
C1194      C1199   1.481   1_565  S
C1194      C1195   1.403       .  A
C1195      C1196   1.398       .  A
C1195      F1200   1.358       .  S
C1196      C1197   1.409       .  A
C1196      F1212   1.358       .  S
C1197      C1198   1.409       .  A
C1198      F1201   1.358       .  S
C1199      C1202   1.405       .  A
C1199      C1206   1.402       .  A
C1202      C1203   1.403       .  A
C1202      F1207   1.358       .  S
C1203      C1204   1.410       .  A
C1203      F1209   1.358       .  S
C1204      C1205   1.411       .  A
C1205      C1206   1.397       .  A
C1205      F1208   1.358       .  S
C1206      F1210   1.358       .  S
C1213      C1214   1.407       .  A
C1213      C1218   1.402       .  A
C1213      F1231   1.358       .  S
C1214      C1219   1.487       .  S
C1214      C1215   1.405       .  A
C1215      C1216   1.399       .  A
C1215      F1220   1.358       .  S
C1216      C1217   1.411       .  A
C1216      F1232   1.357       .  S
C1217      C1218   1.410       .  A
C1218      F1221   1.358       .  S
C1219      C1222   1.407       .  A
C1219      C1226   1.405       .  A
C1222      C1223   1.402       .  A
C1222      F1227   1.358       .  S
C1223      C1224   1.410       .  A
C1223      F1229   1.358       .  S
C1224      C1225   1.410       .  A
C1225      C1226   1.399       .  A
C1225      F1228   1.358       .  S
C1226      F1230   1.358       .  S
C1233      C1234   1.406       .  A
C1233      C1238   1.398       .  A
C1233      F1251   1.358       .  S
C1234      C1239   1.483       .  S
C1234      C1235   1.406       .  A
C1235      C1236   1.399       .  A
C1235      F1240   1.358       .  S
C1236      C1237   1.409       .  A
C1236      F1252   1.358       .  S
C1237      C1238   1.409       .  A
C1238      F1241   1.358       .  S
C1239      C1242   1.405       .  A
C1239      C1246   1.405       .  A
C1242      C1243   1.397       .  A
C1242      F1247   1.358       .  S
C1243      C1244   1.410       .  A
C1243      F1249   1.358       .  S
C1244      C1245   1.411       .  A
C1245      C1246   1.400       .  A
C1245      F1248   1.358       .  S
C1246      F1250   1.358       .  S
C1253      C1254   1.405       .  A
C1253      C1258   1.399       .  A
C1253      F1271   1.358       .  S
C1254      C1259   1.487       .  S
C1254      C1255   1.406       .  A
C1255      C1256   1.401       .  A
C1255      F1260   1.358       .  S
C1256      C1257   1.410       .  A
C1256      F1272   1.357       .  S
C1257      C1258   1.411       .  A
C1258      F1261   1.358       .  S
C1259      C1262   1.406       .  A
C1259      C1266   1.406       .  A
C1262      C1263   1.401       .  A
C1262      F1267   1.358       .  S
C1263      C1264   1.410       .  A
C1263      F1269   1.357       .  S
C1264      C1265   1.411       .  A
C1265      C1266   1.398       .  A
C1265      F1268   1.358       .  S
C1266      F1270   1.358       .  S
