geometry optimzed in LAMMPS
_audit_creation_date              2020-12-01 
_audit_creation_method            'lammps2cif' 
_symmetry_space_group_name_H-M    'P1' 
_symmetry_Int_Tables_number       1 
_symmetry_cell_setting            triclinic 
loop_ 
_symmetry_equiv_pos_as_xyz 
  x,y,z 
_cell_length_a                    43.28766347 
_cell_length_b                    43.71758348220315 
_cell_length_c                    46.14865592818859 
_cell_angle_alpha                 89.9965339846136 
_cell_angle_beta                  90.22051018984547 
_cell_angle_gamma                 121.02946093767294 
loop_ 
_atom_site_label 
_atom_site_type_symbol 
_atom_site_fract_x 
_atom_site_fract_y 
_atom_site_fract_z 
_atom_site_charge 
In1        In  0.42606499  0.56495475  0.21340812     1.36900
C2          C  0.36470907  0.55518393  0.19128264     0.77500
O3          O  0.42395391  0.59476305  0.25182129    -0.61000
O4          O  0.45505515  0.62475106  0.21536663    -0.51900
C5          C  0.44399381  0.53655925  0.25614672     0.70100
O6          O  0.41149656  0.52283231  0.24796026    -0.46700
C7          C  0.45486748  0.54975241  0.16892806     0.74900
O8          O  0.36547392  0.53080629  0.20551787    -0.58600
O9          O  0.47044461  0.58031520  0.18056526    -0.48700
O10         O  0.39479733  0.58351953  0.18867609    -0.55000
C11         C  0.44356134  0.62510345  0.24049046     0.85000
O12         O  0.46642088  0.56352308  0.24186145    -0.56900
O13         O  0.42478851  0.52779217  0.17985714    -0.60200
In14       In  0.12716713  0.56215501  0.03686930     1.36900
C15         C  0.17540023  0.61683667  0.00626211     0.77500
O16         O  0.16933245  0.58180523  0.07077907    -0.61000
O17         O  0.15427585  0.53188387  0.05092274    -0.51900
C18         C  0.08015603  0.54669697  0.07878269     0.70100
O19         O  0.09995966  0.57837624  0.06969347    -0.46700
C20         C  0.08102456  0.53470837  0.49322281     0.74900
O21         O  0.15504663  0.62006479  0.02412340    -0.58600
O22         O  0.09722734  0.51930520  0.00255772    -0.48700
O23         O  0.17100024  0.58594516  0.00467988    -0.55000
C24         C  0.17391477  0.55553482  0.06951772     0.85000
O25         O  0.08422279  0.52352449  0.06586616    -0.56900
O26         O  0.08830194  0.56277295  0.00669535    -0.60200
In27       In  0.42989588  0.86918048  0.37162701     1.36900
C28         C  0.36852690  0.81547820  0.39136541     0.77500
O29         O  0.42706786  0.83819782  0.33192302    -0.61000
O30         O  0.45936784  0.83934045  0.36723730    -0.51900
C31         C  0.44772035  0.92166521  0.33410964     0.70100
O32         O  0.41514164  0.89903156  0.33993726    -0.46700
C33         C  0.45426868  0.90772117  0.41998178     0.74900
O34         O  0.36888488  0.83963654  0.37593779    -0.58600
O35         O  0.47279583  0.89767914  0.40628861    -0.48700
O36         O  0.39903896  0.81948718  0.39633041    -0.55000
C37         C  0.44672212  0.82729831  0.34227757     0.85000
O38         O  0.47050163  0.91729062  0.34773940    -0.56900
O39         O  0.42381650  0.89766052  0.40894050    -0.60200
In40       In  0.85952257  0.44508927  0.28621141     1.36900
C41         C  0.80845206  0.38454897  0.26277671     0.77500
O42         O  0.82534487  0.43865753  0.32389108    -0.61000
O43         O  0.83151597  0.47633632  0.29156409    -0.51900
C44         C  0.90520473  0.46002525  0.32937149     0.70100
O45         O  0.88539930  0.42846163  0.32004751    -0.46700
C46         C  0.90629791  0.47231263  0.24294732     0.74900
O47         O  0.83322078  0.38586272  0.27827035    -0.58600
O48         O  0.88979872  0.48748821  0.25169189    -0.48700
O49         O  0.81006756  0.41396001  0.25943279    -0.55000
C50         C  0.81791572  0.46168363  0.31566270     0.85000
O51         O  0.90173009  0.48339761  0.31617682    -0.56900
O52         O  0.89850039  0.44418011  0.25633162    -0.60200
In53       In  0.57180303  0.44736098  0.46277391     1.36900
C54         C  0.63127812  0.46988149  0.43239278     0.77500
O55         O  0.59401373  0.41968541  0.48837142    -0.61000
O56         O  0.54273642  0.38763255  0.46836725    -0.51900
C57         C  0.55297376  0.47131050  0.00826721     0.70100
O58         O  0.58420388  0.48903308  0.49747790    -0.46700
C59         C  0.53644561  0.46060048  0.42284553     0.74900
O60         O  0.63181767  0.48187809  0.45748398    -0.58600
O61         O  0.52678443  0.42884215  0.42972611    -0.48700
O62         O  0.60041980  0.44743240  0.42273773    -0.55000
C63         C  0.56731516  0.38876976  0.48409418     0.85000
O64         O  0.53269012  0.44158519  0.49624516    -0.56900
O65         O  0.56287964  0.48444944  0.43710260    -0.60200
In66       In  0.55558154  0.13364135  0.12273090     1.36900
C67         C  0.60996752  0.17964234  0.15520054     0.77500
O68         O  0.57934044  0.17932582  0.09237480    -0.61000
O69         O  0.52654580  0.16188609  0.10822422    -0.51900
C70         C  0.53832069  0.08611760  0.08085984     0.70100
O71         O  0.57064836  0.10564861  0.08946726    -0.46700
C72         C  0.52658549  0.09010613  0.16728478     0.74900
O73         O  0.61381423  0.16018748  0.13684226    -0.58600
O74         O  0.51158478  0.10589931  0.15632422    -0.48700
O75         O  0.57863690  0.17499573  0.15643296    -0.55000
C76         C  0.55285215  0.18395199  0.09271832     0.85000
O77         O  0.51579975  0.09150236  0.09363670    -0.56900
O78         O  0.55470106  0.09557608  0.15446206    -0.60200
C79         C  0.49288657  0.23810645  0.03919514    -0.17900
C80         C  0.49522051  0.26618758  0.02276970    -0.20100
C81         C  0.52884607  0.29677743  0.01709552     0.20600
C82         C  0.56049026  0.29885753  0.02773370    -0.03000
C83         C  0.55816793  0.27032799  0.04395308    -0.06100
C84         C  0.52416379  0.23991048  0.04999829     0.20800
C85         C  0.58988786  0.27238997  0.05428164     0.19000
C86         C  0.62354373  0.30286629  0.04853955    -0.17600
C87         C  0.62579743  0.33132805  0.53290516    -0.19800
C88         C  0.59445803  0.32965362  0.02252626     0.20500
C89         C  0.59643899  0.35851886  0.50756333    -0.32800
C90         C  0.56498492  0.35688727  0.49733986     0.01200
C91         C  0.53134455  0.32564746  0.00159147    -0.24100
C92         C  0.52215534  0.21188335  0.06660993    -0.28700
C93         C  0.55382117  0.21363259  0.07647318     0.06800
C94         C  0.58748892  0.24396384  0.07017370    -0.27400
H95         H  0.46657092  0.21495594  0.04346401     0.11600
H96         H  0.47065774  0.26415417  0.01478775     0.12700
H97         H  0.64813099  0.30480391  0.05634412     0.11800
H98         H  0.65207664  0.35473682  0.52903296     0.11000
H99         H  0.62247524  0.38248698  0.50416924     0.16400
H100        H  0.50703309  0.32437782  0.99385527     0.12300
H101        H  0.49615604  0.18846919  0.07128615     0.15200
H102        H  0.61197241  0.24557991  0.07791650     0.14900
C103        C  0.76447726  0.45913301  0.40991768    -0.17900
C104        C  0.73918423  0.46188561  0.42661415    -0.20100
C105        C  0.71635226  0.47193756  0.41377705     0.20600
C106        C  0.71961972  0.48026046  0.38394534    -0.03000
C107        C  0.74583573  0.47839071  0.36723543    -0.06100
C108        C  0.76775573  0.46701510  0.38022103     0.20800
C109        C  0.74925172  0.48667465  0.33738192     0.19000
C110        C  0.72654925  0.49704920  0.32465086    -0.17600
C111        C  0.69977340  0.49783376  0.34104451    -0.19800
C112        C  0.69577146  0.48901388  0.37061606     0.20500
C113        C  0.66752673  0.48731458  0.38688478    -0.32800
C114        C  0.66403926  0.47848215  0.41647006     0.01200
C115        C  0.68919269  0.47211468  0.42997854    -0.24100
C116        C  0.79184093  0.46265219  0.36315320    -0.28700
C117        C  0.79489504  0.47007595  0.33332760     0.06800
C118        C  0.77435230  0.48311321  0.32067193    -0.27400
H119        H  0.78119772  0.45043262  0.42016460     0.11600
H120        H  0.73683295  0.45522732  0.44944005     0.12700
H121        H  0.72881444  0.50357423  0.30180264     0.11800
H122        H  0.68188432  0.50486527  0.33050737     0.11000
H123        H  0.64778609  0.49192906  0.37649751     0.16400
H124        H  0.68589747  0.46459942  0.45266852     0.12300
H125        H  0.80792605  0.45293496  0.37303520     0.15200
H126        H  0.77661208  0.48874698  0.29764175     0.14900
C127        C  0.65345277  0.28151772  0.22104139    -0.17900
C128        C  0.68134273  0.31069507  0.23560460    -0.20100
C129        C  0.71620221  0.31615917  0.23567193     0.20600
C130        C  0.72306923  0.29175993  0.22131322    -0.03000
C131        C  0.69499545  0.26263087  0.20608831    -0.06100
C132        C  0.66013826  0.25769238  0.20597643     0.20800
C133        C  0.70191285  0.23899360  0.19049291     0.19000
C134        C  0.73678500  0.24423352  0.19108584    -0.17600
C135        C  0.76456922  0.27283850  0.20665184    -0.19800
C136        C  0.75808081  0.29694158  0.22164938     0.20500
C137        C  0.78597798  0.32658724  0.23642280    -0.32800
C138        C  0.77925365  0.35149786  0.24976895     0.01200
C139        C  0.74441094  0.34603460  0.24941386    -0.24100
C140        C  0.63264652  0.22961629  0.19015280    -0.28700
C141        C  0.63939815  0.20674366  0.17359838     0.06800
C142        C  0.67400440  0.21115928  0.17413232    -0.27400
H143        H  0.62675636  0.27796916  0.22109359     0.11600
H144        H  0.67570689  0.32915230  0.24664068     0.12700
H145        H  0.74264660  0.22637724  0.17932566     0.11800
H146        H  0.79127406  0.27642445  0.20658826     0.11000
H147        H  0.81306751  0.33110010  0.23653327     0.16400
H148        H  0.73932150  0.36523280  0.25986329     0.12300
H149        H  0.60605673  0.22636110  0.18999041     0.15200
H150        H  0.67929137  0.19341181  0.16157098     0.14900
C151        C  0.55415684  0.03935801  0.25122918    -0.17900
C152        C  0.54334238  0.01655106  0.27509056    -0.20100
C153        C  0.50684864  0.99649736  0.28278695     0.20600
C154        C  0.48108609  0.00024328  0.26687891    -0.03000
C155        C  0.49208434  0.02362473  0.24292873    -0.06100
C156        C  0.52869882  0.04270191  0.23485218     0.20800
C157        C  0.46643101  0.02731397  0.22671069     0.19000
C158        C  0.43003407  0.00781813  0.23494610    -0.17600
C159        C  0.41905431  0.98428018  0.25851718    -0.19800
C160        C  0.44428817  0.97996238  0.27442266     0.20500
C161        C  0.43336975  0.95503520  0.29714496    -0.32800
C162        C  0.45888854  0.95034003  0.31235269     0.01200
C163        C  0.49563432  0.97192925  0.30553422    -0.24100
C164        C  0.53923073  0.06435996  0.21024706    -0.28700
C165        C  0.51393371  0.06786904  0.19366737     0.06800
C166        C  0.47761420  0.04987136  0.20229182    -0.27400
H167        H  0.58241842  0.05407318  0.24536365     0.11600
H168        H  0.56343412  0.01404550  0.28717192     0.12700
H169        H  0.40995029  0.01032360  0.22285865     0.11800
H170        H  0.39071491  0.96908316  0.26406880     0.11000
H171        H  0.40501897  0.93867663  0.30245537     0.16400
H172        H  0.51551811  0.96868772  0.31724811     0.12300
H173        H  0.56737051  0.07860033  0.20393615     0.15200
H174        H  0.45805576  0.05257448  0.18957362     0.14900
C175        C  0.42946128  0.96717189  0.99899232    -0.17900
C176        C  0.44144053  0.99294545  0.02083401    -0.20100
C177        C  0.47801126  0.01246770  0.02860965     0.20600
C178        C  0.50277694  0.00565874  0.01460670    -0.03000
C179        C  0.49065453  0.97954433  0.49253224    -0.06100
C180        C  0.45390212  0.96055566  0.48455750     0.20800
C181        C  0.51537033  0.97300818  0.47802851     0.19000
C182        C  0.55188317  0.99224024  0.48621474    -0.17600
C183        C  0.56391951  0.01815740  0.50814531    -0.19800
C184        C  0.53964238  0.02528975  0.02234410     0.20500
C185        C  0.55150593  0.05178578  0.04397552    -0.32800
C186        C  0.52682821  0.05869979  0.05787626     0.01200
C187        C  0.49018893  0.03883337  0.05003607    -0.24100
C188        C  0.44229257  0.93605616  0.46167509    -0.28700
C189        C  0.46685904  0.93032820  0.44631485     0.06800
C190        C  0.50324837  0.94819314  0.45506270    -0.27400
H191        H  0.40115829  0.95274898  0.99311710     0.11600
H192        H  0.42210927  0.99784555  0.03147950     0.12700
H193        H  0.57125677  0.98757382  0.47538197     0.11800
H194        H  0.59228098  0.03284387  0.51382531     0.11000
H195        H  0.57977512  0.06695142  0.04995519     0.16400
H196        H  0.47093987  0.04391449  0.06063001     0.12300
H197        H  0.41414934  0.92215428  0.45525982     0.15200
H198        H  0.52230202  0.94382643  0.44333438     0.14900
C199        C  0.98491971  0.54795822  0.40149521    -0.17900
C200        C  0.00999781  0.55851073  0.42397562    -0.20100
C201        C  0.02037051  0.53505568  0.43460209     0.20600
C202        C  0.00557116  0.50068484  0.42250441    -0.03000
C203        C  0.98018036  0.48999995  0.39975770    -0.06100
C204        C  0.96994190  0.51385569  0.38926912     0.20800
C205        C  0.96516535  0.45563298  0.38747065     0.19000
C206        C  0.97581211  0.43231954  0.39809063    -0.17600
C207        C  0.00108019  0.44295916  0.42069806    -0.19800
C208        C  0.01613455  0.47708390  0.43312513     0.20500
C209        C  0.04133374  0.48807944  0.45604706    -0.32800
C210        C  0.05564801  0.52223162  0.46839865     0.01200
C211        C  0.04516369  0.54549386  0.45730107    -0.24100
C212        C  0.94516055  0.50341308  0.36652751    -0.28700
C213        C  0.93034356  0.46946167  0.35394022     0.06800
C214        C  0.94007441  0.44543699  0.36465741    -0.27400
H215        H  0.97730200  0.56653164  0.39361469     0.11600
H216        H  0.02124466  0.58500951  0.43309801     0.12700
H217        H  0.96464205  0.40587394  0.38888020     0.11800
H218        H  0.00881034  0.42445005  0.42849216     0.11000
H219        H  0.04935104  0.47004221  0.96448951     0.16400
H220        H  0.05627305  0.57198349  0.46645341     0.12300
H221        H  0.93747824  0.52190911  0.35852407     0.15200
H222        H  0.92862838  0.41918680  0.35497009     0.14900
C223        C  0.98787541  0.56495818  0.17239221    -0.17900
C224        C  0.01258203  0.57541527  0.14956008    -0.20100
C225        C  0.02194141  0.55155716  0.13799948     0.20600
C226        C  0.00667325  0.51702939  0.14991653    -0.03000
C227        C  0.98226277  0.50670939  0.17319106    -0.06100
C228        C  0.97237310  0.53058482  0.18429664     0.20800
C229        C  0.96760428  0.47235950  0.18521220     0.19000
C230        C  0.97732236  0.44864820  0.17409596    -0.17600
C231        C  0.00099510  0.45864472  0.15079249    -0.19800
C232        C  0.01564255  0.49264875  0.13850751     0.20500
C233        C  0.03916802  0.50263822  0.11503457    -0.32800
C234        C  0.05465050  0.53695670  0.10305000     0.01200
C235        C  0.04615729  0.56146180  0.11472517    -0.24100
C236        C  0.94715457  0.51951035  0.20700595    -0.28700
C237        C  0.93248568  0.48515269  0.21891612     0.06800
C238        C  0.94320258  0.46203081  0.20802440    -0.27400
H239        H  0.98086105  0.58376539  0.18071596     0.11600
H240        H  0.02413203  0.60207215  0.14077183     0.12700
H241        H  0.96631712  0.42222463  0.18324304     0.11800
H242        H  0.00784643  0.43974930  0.14236399     0.11000
H243        H  0.04581830  0.48370203  0.10631489     0.16400
H244        H  0.05810952  0.58799573  0.10557733     0.12300
H245        H  0.93922678  0.53756278  0.21551366     0.15200
H246        H  0.93209122  0.43552374  0.21707499     0.14900
C247        C  0.28519378  0.66780007  0.44777741    -0.17900
C248        C  0.31141045  0.69501674  0.43065395    -0.20100
C249        C  0.30941607  0.72531799  0.42439422     0.20600
C250        C  0.28043365  0.72811498  0.43494304    -0.03000
C251        C  0.25407437  0.70071174  0.45249689    -0.06100
C252        C  0.25666697  0.67055621  0.45896187     0.20800
C253        C  0.22553946  0.70371033  0.46393805     0.19000
C254        C  0.22325148  0.73379771  0.45703994    -0.17600
C255        C  0.24937773  0.76097834  0.43947579    -0.19800
C256        C  0.27836260  0.75863934  0.42858238     0.20500
C257        C  0.30605685  0.78671413  0.41243140    -0.32800
C258        C  0.33585259  0.78455183  0.40331955     0.01200
C259        C  0.33672752  0.75343031  0.40867512    -0.24100
C260        C  0.23082934  0.64365008  0.47662284    -0.28700
C261        C  0.20252208  0.64643299  0.48835574     0.06800
C262        C  0.20000030  0.67659789  0.98208345    -0.27400
H263        H  0.28744850  0.64475877  0.45254700     0.11600
H264        H  0.33355193  0.69258629  0.42262163     0.12700
H265        H  0.20141737  0.73647027  0.46544692     0.11800
H266        H  0.24723573  0.78410483  0.43481517     0.11000
H267        H  0.30547145  0.81083709  0.40840973     0.16400
H268        H  0.35954201  0.75161381  0.40139409     0.12300
H269        H  0.23294728  0.62052239  0.48146841     0.15200
H270        H  0.17797229  0.67865712  0.99092313     0.14900
C271        C  0.44049794  0.46260301  0.09482807    -0.17900
C272        C  0.45429428  0.45163120  0.07252430    -0.20100
C273        C  0.49016308  0.47343920  0.06366018     0.20600
C274        C  0.51236718  0.50680465  0.07713740    -0.03000
C275        C  0.49832120  0.51803104  0.09955719    -0.06100
C276        C  0.46229037  0.49565783  0.10848301     0.20800
C277        C  0.52027942  0.55146938  0.11308738     0.19000
C278        C  0.55614698  0.57330862  0.10401399    -0.17600
C279        C  0.57015164  0.56207759  0.08183834    -0.19800
C280        C  0.54851354  0.52884548  0.06824989     0.20500
C281        C  0.56219986  0.51722359  0.04592095    -0.32800
C282        C  0.54000951  0.48391125  0.03246117     0.01200
C283        C  0.50409231  0.46232223  0.04151950    -0.24100
C284        C  0.44859509  0.50656820  0.13098862    -0.28700
C285        C  0.47015583  0.53973717  0.14467703     0.06800
C286        C  0.50597277  0.56224951  0.13552062    -0.27400
H287        H  0.41275731  0.44520231  0.10142056     0.11600
H288        H  0.43693201  0.42597659  0.06228236     0.12700
H289        H  0.57342764  0.59905099  0.11413950     0.11800
H290        H  0.59792523  0.57940312  0.07531433     0.11000
H291        H  0.58987059  0.53407907  0.03893420     0.16400
H292        H  0.48671341  0.43670581  0.03119266     0.12300
H293        H  0.42096332  0.48909629  0.13786987     0.15200
H294        H  0.52277150  0.58781334  0.14608278     0.14900
C295        C  0.43965876  0.43204715  0.35012048    -0.17900
C296        C  0.42661433  0.44290496  0.32682176    -0.20100
C297        C  0.44687292  0.47778326  0.31583966     0.20600
C298        C  0.48044191  0.50200986  0.32874292    -0.03000
C299        C  0.49327554  0.49126972  0.35245732    -0.06100
C300        C  0.47304546  0.45599720  0.36308257     0.20800
C301        C  0.52656572  0.51592267  0.36540954     0.19000
C302        C  0.54679380  0.55080324  0.35472346    -0.17600
C303        C  0.53437088  0.56125585  0.33105282    -0.19800
C304        C  0.50136081  0.53705141  0.31790983     0.20500
C305        C  0.48904250  0.54746500  0.29408478    -0.32800
C306        C  0.45567410  0.52374736  0.28108185     0.01200
C307        C  0.43442066  0.48896965  0.29218432    -0.24100
C308        C  0.48679217  0.44548247  0.38630880    -0.28700
C309        C  0.52007964  0.47024654  0.39915483     0.06800
C310        C  0.53941969  0.50535186  0.38869750    -0.27400
H311        H  0.42362928  0.40492397  0.35799708     0.11600
H312        H  0.40077482  0.42391861  0.31725011     0.12700
H313        H  0.57241093  0.56995898  0.36454727     0.11800
H314        H  0.55058727  0.58828630  0.32301715     0.11000
H315        H  0.50536158  0.57442322  0.28585826     0.16400
H316        H  0.40864130  0.47060529  0.28218840     0.12300
H317        H  0.47173833  0.41835339  0.39436180     0.15200
H318        H  0.56519843  0.52452493  0.39831754     0.14900
C319        C  0.45103250  0.74120358  0.23724464    -0.17900
C320        C  0.45039635  0.76910015  0.25155035    -0.20100
C321        C  0.45249235  0.77156269  0.28190576     0.20600
C322        C  0.45591019  0.74598494  0.29799357    -0.03000
C323        C  0.45562894  0.71731346  0.28359956    -0.06100
C324        C  0.45313337  0.71492246  0.25307193     0.20800
C325        C  0.45676083  0.69051024  0.29980442     0.19000
C326        C  0.45983128  0.69346823  0.33009880    -0.17600
C327        C  0.46102740  0.72235528  0.34430650    -0.19800
C328        C  0.45856933  0.74847703  0.32850508     0.20500
C329        C  0.45761545  0.77640958  0.34271573    -0.32800
C330        C  0.45267311  0.80107535  0.32690211     0.01200
C331        C  0.45034585  0.79860673  0.29649907    -0.24100
C332        C  0.45152619  0.68567324  0.23899276    -0.28700
C333        C  0.45081587  0.65809815  0.25512811     0.06800
C334        C  0.45376428  0.66076829  0.28547149    -0.27400
H335        H  0.44905970  0.73974070  0.21381831     0.11600
H336        H  0.44794297  0.78860652  0.23886007     0.12700
H337        H  0.46094397  0.67323515  0.34284455     0.11800
H338        H  0.46307907  0.72384620  0.36772795     0.11000
H339        H  0.45894389  0.77794515  0.36617484     0.16400
H340        H  0.44652135  0.81757600  0.28423774     0.12300
H341        H  0.44881658  0.68336169  0.21560249     0.15200
H342        H  0.45328532  0.63946607  0.29789259     0.14900
C343        C  0.22920019  0.49014640  0.11234778    -0.17900
C344        C  0.25471960  0.48949853  0.13076606    -0.20100
C345        C  0.27911051  0.51997088  0.14669162     0.20600
C346        C  0.27719401  0.55117833  0.14441790    -0.03000
C347        C  0.25121389  0.55170029  0.12609365    -0.06100
C348        C  0.22732863  0.52116564  0.10967898     0.20800
C349        C  0.24957336  0.58300307  0.12386709     0.19000
C350        C  0.27358349  0.61337245  0.14000507    -0.17600
C351        C  0.29961354  0.61303495  0.15776382    -0.19800
C352        C  0.30186109  0.58223543  0.15987224     0.20500
C353        C  0.32917120  0.58239587  0.17634306    -0.32800
C354        C  0.33202452  0.55185865  0.17800349     0.01200
C355        C  0.30623920  0.52030370  0.16393948    -0.24100
C356        C  0.20220091  0.52233967  0.09086382    -0.28700
C357        C  0.20046250  0.55354488  0.08864925     0.06800
C358        C  0.22418175  0.58361459  0.10537938    -0.27400
H359        H  0.21103881  0.46639183  0.10003555     0.11600
H360        H  0.25577348  0.46532314  0.13217492     0.12700
H361        H  0.27255997  0.63756808  0.13857520     0.11800
H362        H  0.31828884  0.63703740  0.16959750     0.11000
H363        H  0.34898536  0.60671609  0.18728179     0.16400
H364        H  0.30863325  0.49684381  0.16498378     0.12300
H365        H  0.18390473  0.49900002  0.07816531     0.15200
H366        H  0.22313619  0.60780637  0.10384062     0.14900
In367      In  0.42606417  0.56495287  0.71340937     1.36900
C368        C  0.36470603  0.55517796  0.69128420     0.77500
O369        O  0.42395381  0.59476143  0.75182266    -0.61000
O370        O  0.45505336  0.62474922  0.71536730    -0.51900
C371        C  0.44399309  0.53655863  0.75614876     0.70100
O372        O  0.41149574  0.52283195  0.74796271    -0.46700
C373        C  0.45486862  0.54975144  0.66892996     0.74900
O374        O  0.36547342  0.53080043  0.70551742    -0.58600
O375        O  0.47044439  0.58031473  0.68056624    -0.48700
O376        O  0.39479290  0.58351561  0.68867955    -0.55000
C377        C  0.44356060  0.62510177  0.74049154     0.85000
O378        O  0.46642026  0.56352163  0.74186276    -0.56900
O379        O  0.42479027  0.52779060  0.67985956    -0.60200
In380      In  0.12716622  0.56215156  0.53686970     1.36900
C381        C  0.17540225  0.61683456  0.50626524     0.77500
O382        O  0.16932860  0.58179809  0.57078158    -0.61000
O383        O  0.15427290  0.53187809  0.55092331    -0.51900
C384        C  0.08015437  0.54669424  0.57878237     0.70100
O385        O  0.09995912  0.57837354  0.56969362    -0.46700
C386        C  0.08102356  0.53470931  0.99322420     0.74900
O387        O  0.15504774  0.62006203  0.52412595    -0.58600
O388        O  0.09722660  0.51930295  0.50255727    -0.48700
O389        O  0.17100196  0.58594296  0.50468231    -0.55000
C390        C  0.17391033  0.55552734  0.56951993     0.85000
O391        O  0.08421982  0.52352126  0.56586530    -0.56900
O392        O  0.08830364  0.56277230  0.50669386    -0.60200
In393      In  0.42989405  0.86917919  0.87162514     1.36900
C394        C  0.36852295  0.81547668  0.89135975     0.77500
O395        O  0.42706945  0.83819847  0.83192076    -0.61000
O396        O  0.45936524  0.83933837  0.86723731    -0.51900
C397        C  0.44772194  0.92166421  0.83410813     0.70100
O398        O  0.41514277  0.89903191  0.83993550    -0.46700
C399        C  0.45426425  0.90772058  0.91997998     0.74900
O400        O  0.36888256  0.83963526  0.87593139    -0.58600
O401        O  0.47279112  0.89767650  0.90628902    -0.48700
O402        O  0.39903446  0.81948561  0.89632746    -0.55000
C403        C  0.44672207  0.82729778  0.84227670     0.85000
O404        O  0.47050223  0.91728809  0.84773789    -0.56900
O405        O  0.42381326  0.89766107  0.90893681    -0.60200
In406      In  0.85952399  0.44509102  0.78621272     1.36900
C407        C  0.80845448  0.38455276  0.76277516     0.77500
O408        O  0.82534488  0.43865708  0.82389218    -0.61000
O409        O  0.83151878  0.47633903  0.79156717    -0.51900
C410        C  0.90520445  0.46002587  0.82937324     0.70100
O411        O  0.88539936  0.42846239  0.82004882    -0.46700
C412        C  0.90630131  0.47231463  0.74295009     0.74900
O413        O  0.83322109  0.38586472  0.77827053    -0.58600
O414        O  0.88980153  0.48749005  0.75169369    -0.48700
O415        O  0.81007148  0.41396451  0.75943117    -0.55000
C416        C  0.81791742  0.46168483  0.81566511     0.85000
O417        O  0.90173054  0.48339869  0.81617857    -0.56900
O418        O  0.89850372  0.44418237  0.75633486    -0.60200
In419      In  0.57180547  0.44736307  0.96277462     1.36900
C420        C  0.63128137  0.46988472  0.93239482     0.77500
O421        O  0.59401635  0.41968711  0.98837120    -0.61000
O422        O  0.54273875  0.38763474  0.96836722    -0.51900
C423        C  0.55297156  0.47130859  0.50826681     0.70100
O424        O  0.58420532  0.48903632  0.99747720    -0.46700
C425        C  0.53644712  0.46060143  0.92284652     0.74900
O426        O  0.63182018  0.48188004  0.95748638    -0.58600
O427        O  0.52678715  0.42884325  0.92972649    -0.48700
O428        O  0.60042336  0.44743653  0.92273869    -0.55000
C429        C  0.56731763  0.38877160  0.98409370     0.85000
O430        O  0.53269357  0.44158573  0.99624714    -0.56900
O431        O  0.56288038  0.48445068  0.93710402    -0.60200
In432      In  0.55558308  0.13364201  0.62273119     1.36900
C433        C  0.60996994  0.17964514  0.65519885     0.77500
O434        O  0.57933949  0.17932534  0.59237455    -0.61000
O435        O  0.52654541  0.16188526  0.60822570    -0.51900
C436        C  0.53832338  0.08611877  0.58086016     0.70100
O437        O  0.57065104  0.10565079  0.58946721    -0.46700
C438        C  0.52658855  0.09010688  0.66728511     0.74900
O439        O  0.61381627  0.16018946  0.63684122    -0.58600
O440        O  0.51158700  0.10589932  0.65632475    -0.48700
O441        O  0.57863902  0.17499768  0.65643209    -0.55000
C442        C  0.55285094  0.18395103  0.59271905     0.85000
O443        O  0.51580186  0.09150248  0.59363724    -0.56900
O444        O  0.55470437  0.09557772  0.65446231    -0.60200
C445        C  0.49288475  0.23810244  0.53919236    -0.17900
C446        C  0.49521875  0.26618366  0.52276696    -0.20100
C447        C  0.52884409  0.29677473  0.51709475     0.20600
C448        C  0.56048809  0.29885589  0.52773468    -0.03000
C449        C  0.55816577  0.27032631  0.54395396    -0.06100
C450        C  0.52416177  0.23990766  0.54999743     0.20800
C451        C  0.58988559  0.27238944  0.55428420     0.19000
C452        C  0.62354130  0.30286668  0.54854371    -0.17600
C453        C  0.62579994  0.33132763  0.03290086    -0.19800
C454        C  0.59445563  0.32965305  0.52252904     0.20500
C455        C  0.59644147  0.35851944  0.00756053    -0.32800
C456        C  0.56498726  0.35688886  0.99733881     0.01200
C457        C  0.53134252  0.32564488  0.50159088    -0.24100
C458        C  0.52215335  0.21188066  0.56660926    -0.28700
C459        C  0.55381919  0.21363128  0.57647424     0.06800
C460        C  0.58748675  0.24396352  0.57017635    -0.27400
H461        H  0.46656924  0.21495103  0.54345976     0.11600
H462        H  0.47065612  0.26414935  0.51478357     0.12700
H463        H  0.64812842  0.30480499  0.55634944     0.11800
H464        H  0.65207931  0.35473566  0.02902742     0.11000
H465        H  0.62247794  0.38248689  0.00416518     0.16400
H466        H  0.50703111  0.32437434  0.49385332     0.12300
H467        H  0.49615422  0.18846554  0.57128416     0.15200
H468        H  0.61197016  0.24558046  0.57792046     0.14900
C469        C  0.76447906  0.45913379  0.90992060    -0.17900
C470        C  0.73918629  0.46188694  0.92661705    -0.20100
C471        C  0.71635510  0.47193988  0.91377998     0.20600
C472        C  0.71962314  0.48026337  0.88394839    -0.03000
C473        C  0.74583894  0.47839319  0.86723856    -0.06100
C474        C  0.76775802  0.46701637  0.88022400     0.20800
C475        C  0.74925553  0.48667790  0.83738520     0.19000
C476        C  0.72655382  0.49705336  0.82465414    -0.17600
C477        C  0.69977804  0.49783813  0.84104767    -0.19800
C478        C  0.69577560  0.48901771  0.87061908     0.20500
C479        C  0.66753093  0.48731869  0.88688759    -0.32800
C480        C  0.66404288  0.47848571  0.91647272     0.01200
C481        C  0.68919565  0.47211739  0.92998133    -0.24100
C482        C  0.79184277  0.46265283  0.86315602    -0.28700
C483        C  0.79489740  0.47007744  0.83333053     0.06800
C484        C  0.77435582  0.48311615  0.82067519    -0.27400
H485        H  0.78119885  0.45043259  0.92016747     0.11600
H486        H  0.73683455  0.45522825  0.94944287     0.12700
H487        H  0.72881947  0.50357887  0.80180604     0.11800
H488        H  0.68188945  0.50487026  0.83051054     0.11000
H489        H  0.64779070  0.49193369  0.87650026     0.16400
H490        H  0.68589990  0.46460163  0.95267119     0.12300
H491        H  0.80792714  0.45293456  0.87303774     0.15200
H492        H  0.77661606  0.48875060  0.79764511     0.14900
C493        C  0.65345809  0.28152870  0.72103083    -0.17900
C494        C  0.68134795  0.31070581  0.73559424    -0.20100
C495        C  0.71620640  0.31616730  0.73566464     0.20600
C496        C  0.72307262  0.29176607  0.72130848    -0.03000
C497        C  0.69499894  0.26263710  0.70608346    -0.06100
C498        C  0.66014268  0.25770092  0.70596884     0.20800
C499        C  0.70191541  0.23899733  0.69049099     0.19000
C500        C  0.73678673  0.24423519  0.69108652    -0.17600
C501        C  0.76457087  0.27284024  0.70665254    -0.19800
C502        C  0.75808325  0.29694536  0.72164762     0.20500
C503        C  0.78598017  0.32659052  0.73642176    -0.32800
C504        C  0.77925651  0.35150274  0.74976577     0.01200
C505        C  0.74441485  0.34604199  0.74940740    -0.24100
C506        C  0.63265083  0.22962425  0.69014588    -0.28700
C507        C  0.63940128  0.20674843  0.67359493     0.06800
C508        C  0.67400681  0.21116231  0.67413098    -0.27400
H509        H  0.62676242  0.27798198  0.72108081     0.11600
H510        H  0.67571283  0.32916471  0.74662825     0.12700
H511        H  0.74264765  0.22637705  0.67932853     0.11800
H512        H  0.79127501  0.27642440  0.70659113     0.11000
H513        H  0.81306899  0.33110151  0.73653471     0.16400
H514        H  0.73932592  0.36524142  0.75985514     0.12300
H515        H  0.60606171  0.22637071  0.68998156     0.15200
H516        H  0.67929291  0.19341251  0.66157214     0.14900
C517        C  0.55415963  0.03935357  0.75122610    -0.17900
C518        C  0.54334505  0.01654630  0.77508726    -0.20100
C519        C  0.50685160  0.99649455  0.78278481     0.20600
C520        C  0.48108954  0.00024269  0.76687811    -0.03000
C521        C  0.49208788  0.02362434  0.74292815    -0.06100
C522        C  0.52870198  0.04269962  0.73485046     0.20800
C523        C  0.46643493  0.02731567  0.72671148     0.19000
C524        C  0.43003837  0.00782176  0.73494799    -0.17600
C525        C  0.41905848  0.98428366  0.75851890    -0.19800
C526        C  0.44429190  0.97996380  0.77442300     0.20500
C527        C  0.43337318  0.95503652  0.79714506    -0.32800
C528        C  0.45889130  0.95033919  0.81235144     0.01200
C529        C  0.49563695  0.97192626  0.80553191    -0.24100
C530        C  0.53923384  0.06435804  0.71024557    -0.28700
C531        C  0.51393712  0.06786930  0.69366735     0.06800
C532        C  0.47761809  0.04987333  0.70229287    -0.27400
H533        H  0.58242092  0.05406728  0.74535965     0.11600
H534        H  0.56343641  0.01403900  0.78716759     0.12700
H535        H  0.40995495  0.01032893  0.72286158     0.11800
H536        H  0.39071933  0.96908817  0.76407148     0.11000
H537        H  0.40502250  0.93867953  0.80245640     0.16400
H538        H  0.51552020  0.96868294  0.81724485     0.12300
H539        H  0.56737325  0.07859698  0.70393378     0.15200
H540        H  0.45805996  0.05257813  0.68957575     0.14900
C541        C  0.42946331  0.96715999  0.49900240    -0.17900
C542        C  0.44144216  0.99293401  0.52084363    -0.20100
C543        C  0.47801407  0.01246220  0.52861508     0.20600
C544        C  0.50278146  0.00565854  0.51460855    -0.03000
C545        C  0.49064960  0.97954504  0.99252991    -0.06100
C546        C  0.45389849  0.96056212  0.98455114     0.20800
C547        C  0.51536385  0.97300353  0.97802987     0.19000
C548        C  0.55187543  0.99222991  0.98622007    -0.17600
C549        C  0.56391216  0.01814650  0.00815112    -0.19800
C550        C  0.53964805  0.02529543  0.52234181     0.20500
C551        C  0.55151099  0.05179191  0.54397276    -0.32800
C552        C  0.52683155  0.05870069  0.55787698     0.01200
C553        C  0.49019122  0.03882857  0.55004081    -0.24100
C554        C  0.44228880  0.93606255  0.96166873    -0.28700
C555        C  0.46685391  0.93032871  0.94631253     0.06800
C556        C  0.50324178  0.94818852  0.95506404    -0.27400
H557        H  0.40115932  0.95273258  0.49313030     0.11600
H558        H  0.42210958  0.99782992  0.53149199     0.12700
H559        H  0.57124783  0.98755934  0.97539014     0.11800
H560        H  0.59227270  0.03282843  0.01383431     0.11000
H561        H  0.57978106  0.06696204  0.54994927     0.16400
H562        H  0.47094083  0.04390558  0.56063756     0.12300
H563        H  0.41414673  0.92216500  0.95525050     0.15200
H564        H  0.52229443  0.94381746  0.94333878     0.14900
C565        C  0.98491361  0.54795612  0.90150045    -0.17900
C566        C  0.00999150  0.55850859  0.92398093    -0.20100
C567        C  0.02036604  0.53505444  0.93460608     0.20600
C568        C  0.00556853  0.50068442  0.92250722    -0.03000
C569        C  0.98017781  0.48999950  0.89976053    -0.06100
C570        C  0.96993771  0.51385446  0.88927309     0.20800
C571        C  0.96516471  0.45563339  0.88747219     0.19000
C572        C  0.97581322  0.43232082  0.89809095    -0.17600
C573        C  0.00108138  0.44296054  0.92069828    -0.19800
C574        C  0.01613393  0.47708446  0.93312657     0.20500
C575        C  0.04133354  0.48808031  0.95604819    -0.32800
C576        C  0.05564605  0.52223173  0.96840081     0.01200
C577        C  0.04515943  0.54549282  0.95730477    -0.24100
C578        C  0.94515691  0.50341206  0.86653120    -0.28700
C579        C  0.93034210  0.46946168  0.85394253     0.06800
C580        C  0.94007420  0.44543757  0.86465873    -0.27400
H581        H  0.97729464  0.56652895  0.89362078     0.11600
H582        H  0.02123692  0.58500675  0.93310432     0.12700
H583        H  0.96464462  0.40587590  0.88887948     0.11800
H584        H  0.00881316  0.42445221  0.92849126     0.11000
H585        H  0.04934935  0.47004039  0.46448956     0.16400
H586        H  0.05626738  0.57198187  0.96645795     0.12300
H587        H  0.93747341  0.52190751  0.85852848     0.15200
H588        H  0.92862971  0.41918813  0.85497027     0.14900
C589        C  0.98787723  0.56495825  0.67239328    -0.17900
C590        C  0.01258283  0.57541458  0.64956050    -0.20100
C591        C  0.02194187  0.55155614  0.63800006     0.20600
C592        C  0.00667458  0.51702892  0.64991802    -0.03000
C593        C  0.98226523  0.50670975  0.67319328    -0.06100
C594        C  0.97237573  0.53058543  0.68429859     0.20800
C595        C  0.96760750  0.47236039  0.68521528     0.19000
C596        C  0.97732544  0.44864884  0.67409929    -0.17600
C597        C  0.00099713  0.45864458  0.65079512    -0.19800
C598        C  0.01564362  0.49264800  0.63850920     0.20500
C599        C  0.03916797  0.50263667  0.61503555    -0.32800
C600        C  0.05464952  0.53695459  0.60305007     0.01200
C601        C  0.04615661  0.56145998  0.61472504    -0.24100
C602        C  0.94715782  0.51951159  0.70700829    -0.28700
C603        C  0.93248942  0.48515438  0.71891915     0.06800
C604        C  0.94320647  0.46203236  0.70802796    -0.27400
H605        H  0.98086288  0.58376561  0.68071677     0.11600
H606        H  0.02413219  0.60207107  0.64077158     0.12700
H607        H  0.96632087  0.42222572  0.68324704     0.11800
H608        H  0.00784837  0.43974901  0.64236679     0.11000
H609        H  0.04581827  0.48370041  0.60631611     0.16400
H610        H  0.05810823  0.58799352  0.60557655     0.12300
H611        H  0.93922986  0.53756409  0.71551558     0.15200
H612        H  0.93209551  0.43552568  0.71707912     0.14900
C613        C  0.28518802  0.66779870  0.94777017    -0.17900
C614        C  0.31140400  0.69501455  0.93064572    -0.20100
C615        C  0.30941003  0.72531603  0.92438610     0.20600
C616        C  0.28042878  0.72811419  0.93493618    -0.03000
C617        C  0.25407009  0.70071167  0.95249088    -0.06100
C618        C  0.25666223  0.67055587  0.95895561     0.20800
C619        C  0.22553641  0.70371141  0.96393331     0.19000
C620        C  0.22324915  0.73379932  0.95703575    -0.17600
C621        C  0.24937487  0.76097930  0.93947082    -0.19800
C622        C  0.27835850  0.75863909  0.92857609     0.20500
C623        C  0.30605262  0.78671343  0.91242469    -0.32800
C624        C  0.33584746  0.78455010  0.90331197     0.01200
C625        C  0.33672118  0.75342776  0.90866636    -0.24100
C626        C  0.23082528  0.64365045  0.97661745    -0.28700
C627        C  0.20251907  0.64643434  0.98835143     0.06800
C628        C  0.20000281  0.67659620  0.48208743    -0.27400
H629        H  0.28744247  0.64475729  0.95253973     0.11600
H630        H  0.33354473  0.69258330  0.92261265     0.12700
H631        H  0.20141604  0.73647283  0.96544377     0.11800
H632        H  0.24723348  0.78410623  0.93481064     0.11000
H633        H  0.30546819  0.81083706  0.90840385     0.16400
H634        H  0.35953503  0.75161060  0.90138459     0.12300
H635        H  0.23294298  0.62052267  0.98146288     0.15200
H636        H  0.17797387  0.67865458  0.49092614     0.14900
C637        C  0.44049823  0.46260175  0.59483025    -0.17900
C638        C  0.45429389  0.45162981  0.57252607    -0.20100
C639        C  0.49016253  0.47343758  0.56366148     0.20600
C640        C  0.51236717  0.50680292  0.57713874    -0.03000
C641        C  0.49832183  0.51802952  0.59955892    -0.06100
C642        C  0.46229115  0.49565649  0.60848517     0.20800
C643        C  0.52028043  0.55146793  0.61308897     0.19000
C644        C  0.55614784  0.57330693  0.60401506    -0.17600
C645        C  0.57015189  0.56207561  0.58183912    -0.19800
C646        C  0.54851337  0.52884350  0.56825076     0.20500
C647        C  0.56219902  0.51722140  0.54592142    -0.32800
C648        C  0.54000807  0.48390930  0.53246144     0.01200
C649        C  0.50409100  0.46232054  0.54152022    -0.24100
C650        C  0.44859641  0.50656700  0.63099102    -0.28700
C651        C  0.47015731  0.53973612  0.64467916     0.06800
C652        C  0.50597417  0.56224833  0.63552242    -0.27400
H653        H  0.41275765  0.44520123  0.60142304     0.11600
H654        H  0.43693121  0.42597528  0.56228412     0.12700
H655        H  0.57342887  0.59904938  0.61414040     0.11800
H656        H  0.59792541  0.57940101  0.57531472     0.11000
H657        H  0.58986966  0.53407670  0.53893432     0.16400
H658        H  0.48671167  0.43670427  0.53119332     0.12300
H659        H  0.42096471  0.48909517  0.63787250     0.15200
H660        H  0.52277306  0.58781226  0.64608444     0.14900
C661        C  0.43966126  0.43204616  0.85012027    -0.17900
C662        C  0.42661630  0.44290388  0.82682188    -0.20100
C663        C  0.44687365  0.47778282  0.81584087     0.20600
C664        C  0.48044186  0.50201013  0.82874484    -0.03000
C665        C  0.49327589  0.49127010  0.85245900    -0.06100
C666        C  0.47304710  0.45599695  0.86308316     0.20800
C667        C  0.52656520  0.51592375  0.86541203     0.19000
C668        C  0.54679208  0.55080492  0.85472696    -0.17600
C669        C  0.53436885  0.56125743  0.83105647    -0.19800
C670        C  0.50135961  0.53705230  0.81791270     0.20500
C671        C  0.48904098  0.54746576  0.79408782    -0.32800
C672        C  0.45567339  0.52374732  0.78108417     0.01200
C673        C  0.43442098  0.48896907  0.79218577    -0.24100
C674        C  0.48679421  0.44548239  0.88630915    -0.28700
C675        C  0.52008074  0.47024719  0.89915603     0.06800
C676        C  0.53941952  0.50535305  0.88869977    -0.27400
H677        H  0.42363280  0.40492246  0.85799600     0.11600
H678        H  0.40077747  0.42391700  0.81724963     0.12700
H679        H  0.57240853  0.56996119  0.86455139     0.11800
H680        H  0.55058432  0.58828834  0.82302155     0.11000
H681        H  0.50535914  0.57442442  0.78586192     0.16400
H682        H  0.40864229  0.47060414  0.78218917     0.12300
H683        H  0.47174138  0.41835286  0.89436132     0.15200
H684        H  0.56519760  0.52452667  0.89832046     0.14900
C685        C  0.45104089  0.74120617  0.73724489    -0.17900
C686        C  0.45040507  0.76910315  0.75155021    -0.20100
C687        C  0.45249719  0.77156399  0.78190578     0.20600
C688        C  0.45591117  0.74598431  0.79799416    -0.03000
C689        C  0.45562978  0.71731258  0.78360048    -0.06100
C690        C  0.45313771  0.71492309  0.75307269     0.20800
C691        C  0.45675794  0.69050764  0.79980576     0.19000
C692        C  0.45982492  0.69346411  0.83010035    -0.17600
C693        C  0.46102106  0.72235130  0.84430779    -0.19800
C694        C  0.45856663  0.74847478  0.82850586     0.20500
C695        C  0.45761271  0.77640747  0.84271612    -0.32800
C696        C  0.45267381  0.80107498  0.82690186     0.01200
C697        C  0.45035047  0.79860816  0.79649864    -0.24100
C698        C  0.45152985  0.68567341  0.73899377    -0.28700
C699        C  0.45081563  0.65809659  0.75512939     0.06800
C700        C  0.45376100  0.66076545  0.78547297    -0.27400
H701        H  0.44907087  0.73974449  0.71381844     0.11600
H702        H  0.44795476  0.78861105  0.73885950     0.12700
H703        H  0.46093472  0.67322972  0.84284642     0.11800
H704        H  0.46306987  0.72384098  0.86772940     0.11000
H705        H  0.45893829  0.77794177  0.86617534     0.16400
H706        H  0.44652879  0.81757894  0.78423680     0.12300
H707        H  0.44882280  0.68336302  0.71560334     0.15200
H708        H  0.45327921  0.63946201  0.79789433     0.14900
C709        C  0.22919888  0.49013915  0.61234637    -0.17900
C710        C  0.25471890  0.48949149  0.63076416    -0.20100
C711        C  0.27910740  0.51996269  0.64669210     0.20600
C712        C  0.27718737  0.55116842  0.64442159    -0.03000
C713        C  0.25120667  0.55169012  0.62609783    -0.06100
C714        C  0.22732430  0.52115703  0.60968036     0.20800
C715        C  0.24956299  0.58299139  0.62387436     0.19000
C716        C  0.27357000  0.61335921  0.64001526    -0.17600
C717        C  0.29960058  0.61302203  0.65777346    -0.19800
C718        C  0.30185180  0.58222435  0.65987846     0.20500
C719        C  0.32916306  0.58238577  0.67634832    -0.32800
C720        C  0.33202021  0.55185060  0.67800547     0.01200
C721        C  0.30623726  0.52029634  0.66393909    -0.24100
C722        C  0.20219680  0.52233142  0.59086501    -0.28700
C723        C  0.20045606  0.55353562  0.58865288     0.06800
C724        C  0.22417184  0.58360331  0.60538642    -0.27400
H725        H  0.21103964  0.46638565  0.60003217     0.11600
H726        H  0.25577533  0.46531735  0.63217059     0.12700
H727        H  0.27254391  0.63755361  0.63858786     0.11800
H728        H  0.31827365  0.63702350  0.66960927     0.11000
H729        H  0.34897519  0.60670541  0.68728895     0.16400
H730        H  0.30863408  0.49683793  0.66498091     0.12300
H731        H  0.18390314  0.49899314  0.57816411     0.15200
H732        H  0.22312436  0.60779420  0.60384985     0.14900
loop_ 
_geom_bond_atom_site_label_1 
_geom_bond_atom_site_label_2 
_geom_bond_distance 
_geom_bond_site_symmetry_2 
_ccdc_geom_bond_type 
In1           O3   2.230       .  S
In1           O4   2.244       .  S
In1          O12   2.208       .  S
In1           O6   2.267       .  S
In1           O8   2.280       .  S
In1           O9   2.265       .  S
In1          O10   2.217       .  S
In1          O13   2.224       .  S
C2            O8   1.267       .  A
C2           O10   1.258       .  A
C2          C354   1.476       .  S
O3           C11   1.263       .  A
O4           C11   1.267       .  A
C5           O12   1.262       .  A
C5            O6   1.268       .  A
C5          C306   1.477       .  S
C7            O9   1.264       .  A
C7           O13   1.260       .  A
C7          C285   1.479       .  S
C11         C333   1.472       .  S
In14         O16   2.209       .  S
In14         O17   2.268       .  S
In14         O25   2.209       .  S
In14         O19   2.249       .  S
In14         O21   2.251       .  S
In14         O22   2.275       .  S
In14         O23   2.208       .  S
In14         O26   2.191       .  S
C15          O21   1.269       .  A
C15          O23   1.265       .  A
C15         C627   1.475   1_554  S
O16          C24   1.264       .  A
O17          C24   1.271       .  A
C18          O25   1.264       .  A
C18          O19   1.268       .  A
C18         C234   1.476       .  S
C20         O388   1.271       .  A
C20         O392   1.261       .  A
C20         C210   1.480       .  S
O22         C386   1.271   1_554  A
C24         C357   1.484       .  S
O26         C386   1.261   1_554  A
In27         O29   2.244       .  S
In27         O30   2.256       .  S
In27         O38   2.221       .  S
In27         O32   2.259       .  S
In27         O34   2.274       .  S
In27         O35   2.270       .  S
In27         O36   2.196       .  S
In27         O39   2.220       .  S
C28          O34   1.267       .  A
C28          O36   1.260       .  A
C28         C258   1.472       .  S
O29          C37   1.263       .  A
O30          C37   1.266       .  A
C31          O38   1.263       .  A
C31          O32   1.267       .  A
C31         C162   1.481       .  S
C33          O35   1.266       .  A
C33          O39   1.260       .  A
C33         C189   1.480       .  S
C37         C330   1.480       .  S
In40         O42   2.210       .  S
In40         O43   2.260       .  S
In40         O51   2.209       .  S
In40         O45   2.247       .  S
In40         O47   2.257       .  S
In40         O48   2.281       .  S
In40         O49   2.222       .  S
In40         O52   2.199       .  S
C41          O47   1.263       .  A
C41          O49   1.261       .  A
C41         C138   1.469       .  S
O42          C50   1.262       .  A
O43          C50   1.269       .  A
C44          O51   1.263       .  A
C44          O45   1.266       .  A
C44         C213   1.472       .  S
C46          O48   1.266       .  A
C46          O52   1.258       .  A
C46         C237   1.478       .  S
C50         C117   1.475       .  S
In53         O55   2.230       .  S
In53         O56   2.255       .  S
In53         O64   2.213       .  S
In53         O58   2.271       .  S
In53         O60   2.247       .  S
In53         O61   2.265       .  S
In53         O62   2.228       .  S
In53         O65   2.196       .  S
C54          O60   1.266       .  A
C54          O62   1.261       .  A
C54         C114   1.467       .  S
O55          C63   1.261       .  A
O56          C63   1.265       .  A
C57         O430   1.260   1_554  A
C57         O424   1.265   1_554  A
C57         C282   1.479       .  S
O58         C423   1.265       .  A
C59          O61   1.267       .  A
C59          O65   1.262       .  A
C59         C309   1.475       .  S
C63          C90   1.477       .  S
O64         C423   1.260       .  A
In66         O68   2.214       .  S
In66         O69   2.269       .  S
In66         O77   2.208       .  S
In66         O71   2.261       .  S
In66         O73   2.258       .  S
In66         O74   2.268       .  S
In66         O75   2.194       .  S
In66         O78   2.202       .  S
C67          O73   1.271       .  A
C67          O75   1.265       .  A
C67         C141   1.478       .  S
O68          C76   1.263       .  A
O69          C76   1.270       .  A
C70          O77   1.263       .  A
C70          O71   1.268       .  A
C70         C186   1.480       .  S
C72          O74   1.270       .  A
C72          O78   1.263       .  A
C72         C165   1.478       .  S
C76          C93   1.480       .  S
C79          C80   1.402       .  A
C79          C84   1.404       .  A
C79          H95   1.083       .  S
C80          C81   1.404       .  A
C80          H96   1.083       .  S
C81          C91   1.406       .  A
C81          C82   1.411       .  A
C82          C88   1.412       .  A
C82          C83   1.413       .  A
C83          C85   1.410       .  A
C83          C84   1.413       .  A
C84          C92   1.410       .  A
C85          C94   1.400       .  A
C85          C86   1.403       .  A
C86         C453   1.398       .  A
C86          H97   1.083       .  S
C87         C452   1.398       .  A
C87         C454   1.403       .  A
C87          H98   1.084       .  S
C88         C453   1.403       .  A
C88         C455   1.402       .  A
C89          C90   1.406       .  A
C89         C454   1.402       .  A
C89          H99   1.085       .  S
C90         C457   1.406       .  A
C91         C456   1.406   1_554  A
C91         H100   1.084   1_554  S
C92          C93   1.407       .  A
C92         H101   1.084       .  S
C93          C94   1.406       .  A
C94         H102   1.084       .  S
C103        C104   1.396       .  A
C103        C108   1.403       .  A
C103        H119   1.083       .  S
C104        C105   1.401       .  A
C104        H120   1.084       .  S
C105        C115   1.399       .  A
C105        C106   1.413       .  A
C106        C112   1.412       .  A
C106        C107   1.411       .  A
C107        C109   1.413       .  A
C107        C108   1.410       .  A
C108        C116   1.398       .  A
C109        C118   1.407       .  A
C109        C110   1.404       .  A
C110        C111   1.402       .  A
C110        H121   1.084       .  S
C111        C112   1.405       .  A
C111        H122   1.083       .  S
C112        C113   1.406       .  A
C113        C114   1.406       .  A
C113        H123   1.084       .  S
C114        C115   1.400       .  A
C115        H124   1.085       .  S
C116        C117   1.405       .  A
C116        H125   1.084       .  S
C117        C118   1.405       .  A
C118        H126   1.084       .  S
C127        C128   1.394       .  A
C127        C132   1.402       .  A
C127        H143   1.084       .  S
C128        C129   1.401       .  A
C128        H144   1.083       .  S
C129        C139   1.396       .  A
C129        C130   1.412       .  A
C130        C136   1.412       .  A
C130        C131   1.411       .  A
C131        C133   1.413       .  A
C131        C132   1.410       .  A
C132        C140   1.394       .  A
C133        C142   1.410       .  A
C133        C134   1.405       .  A
C134        C135   1.403       .  A
C134        H145   1.083       .  S
C135        C136   1.405       .  A
C135        H146   1.084       .  S
C136        C137   1.408       .  A
C137        C138   1.407       .  A
C137        H147   1.084       .  S
C138        C139   1.400       .  A
C139        H148   1.085       .  S
C140        C141   1.404       .  A
C140        H149   1.085       .  S
C141        C142   1.408       .  A
C142        H150   1.084       .  S
C151        C152   1.396       .  A
C151        C156   1.402       .  A
C151        H167   1.084       .  S
C152        C153   1.402   1_545  A
C152        H168   1.083       .  S
C153        C163   1.399       .  A
C153        C154   1.411   1_565  A
C154        C160   1.412   1_545  A
C154        C155   1.413       .  A
C155        C157   1.413       .  A
C155        C156   1.410       .  A
C156        C164   1.397       .  A
C157        C166   1.410       .  A
C157        C158   1.405       .  A
C158        C159   1.403   1_545  A
C158        H169   1.083       .  S
C159        C160   1.405       .  A
C159        H170   1.084       .  S
C160        C161   1.408       .  A
C161        C162   1.408       .  A
C161        H171   1.084       .  S
C162        C163   1.406       .  A
C163        H172   1.084       .  S
C164        C165   1.405       .  A
C164        H173   1.085       .  S
C165        C166   1.407       .  A
C166        H174   1.084       .  S
C175        C176   1.396   1_556  A
C175        C546   1.403       .  A
C175        H191   1.083       .  S
C176        C177   1.402   1_565  A
C176        H192   1.084       .  S
C177        C187   1.398       .  A
C177        C178   1.411       .  A
C178        C184   1.412       .  A
C178        C545   1.412   1_544  A
C179        C181   1.412       .  A
C179        C180   1.411       .  A
C179        C544   1.412   1_565  A
C180        C188   1.399       .  A
C180        C541   1.403       .  A
C181        C190   1.409       .  A
C181        C182   1.405       .  A
C182        C183   1.402   1_565  A
C182        H193   1.084       .  S
C183        C550   1.405       .  A
C183        H194   1.083       .  S
C184        C185   1.409       .  A
C184        C549   1.405       .  A
C185        C186   1.408       .  A
C185        H195   1.084       .  S
C186        C187   1.406       .  A
C187        H196   1.085       .  S
C188        C189   1.406       .  A
C188        H197   1.084       .  S
C189        C190   1.407       .  A
C190        H198   1.084       .  S
C199        C200   1.394   1_655  A
C199        C204   1.401       .  A
C199        H215   1.084       .  S
C200        C201   1.402       .  A
C200        H216   1.083       .  S
C201        C211   1.394       .  A
C201        C202   1.409       .  A
C202        C208   1.414       .  A
C202        C203   1.411   1_455  A
C203        C205   1.411       .  A
C203        C204   1.412       .  A
C204        C212   1.395       .  A
C205        C214   1.407       .  A
C205        C206   1.405       .  A
C206        C207   1.403   1_655  A
C206        H217   1.083       .  S
C207        C208   1.405       .  A
C207        H218   1.084       .  S
C208        C209   1.411       .  A
C209        C210   1.408       .  A
C209        H585   1.084       .  S
C210        C211   1.406       .  A
C211        H220   1.084       .  S
C212        C213   1.403       .  A
C212        H221   1.085       .  S
C213        C214   1.407       .  A
C214        H222   1.084       .  S
H219        C575   1.084       .  S
C223        C224   1.403   1_655  A
C223        C228   1.405       .  A
C223        H239   1.084       .  S
C224        C225   1.405       .  A
C224        H240   1.083       .  S
C225        C235   1.407       .  A
C225        C226   1.411       .  A
C226        C232   1.411       .  A
C226        C227   1.411   1_455  A
C227        C229   1.409       .  A
C227        C228   1.413       .  A
C228        C236   1.410       .  A
C229        C238   1.395       .  A
C229        C230   1.402       .  A
C230        C231   1.394   1_655  A
C230        H241   1.083       .  S
C231        C232   1.402       .  A
C231        H242   1.084       .  S
C232        C233   1.397       .  A
C233        C234   1.404       .  A
C233        H243   1.085       .  S
C234        C235   1.407       .  A
C235        H244   1.084       .  S
C236        C237   1.407       .  A
C236        H245   1.084       .  S
C237        C238   1.405       .  A
C238        H246   1.084       .  S
C247        C248   1.394       .  A
C247        C252   1.401       .  A
C247        H263   1.083       .  S
C248        C249   1.401       .  A
C248        H264   1.084       .  S
C249        C259   1.394       .  A
C249        C250   1.410       .  A
C250        C256   1.414       .  A
C250        C251   1.411       .  A
C251        C253   1.412       .  A
C251        C252   1.411       .  A
C252        C260   1.396       .  A
C253        C254   1.405       .  A
C253        C628   1.409       .  A
C254        C255   1.403       .  A
C254        H265   1.084       .  S
C255        C256   1.405       .  A
C255        H266   1.083       .  S
C256        C257   1.410       .  A
C257        C258   1.407       .  A
C257        H267   1.084       .  S
C258        C259   1.402       .  A
C259        H268   1.085       .  S
C260        C261   1.403       .  A
C260        H269   1.084       .  S
C261        C381   1.475       .  S
C261        C628   1.408       .  A
C262        C619   1.409       .  A
C262        C627   1.408       .  A
C262        H270   1.084       .  S
C271        C272   1.395       .  A
C271        C276   1.402       .  A
C271        H287   1.084       .  S
C272        C273   1.402       .  A
C272        H288   1.084       .  S
C273        C283   1.397       .  A
C273        C274   1.410       .  A
C274        C280   1.413       .  A
C274        C275   1.412       .  A
C275        C277   1.412       .  A
C275        C276   1.411       .  A
C276        C284   1.398       .  A
C277        C286   1.408       .  A
C277        C278   1.405       .  A
C278        C279   1.403       .  A
C278        H289   1.083       .  S
C279        C280   1.405       .  A
C279        H290   1.083       .  S
C280        C281   1.409       .  A
C281        C282   1.408       .  A
C281        H291   1.084       .  S
C282        C283   1.405       .  A
C283        H292   1.084       .  S
C284        C285   1.405       .  A
C284        H293   1.084       .  S
C285        C286   1.408       .  A
C286        H294   1.084       .  S
C295        C296   1.404       .  A
C295        C300   1.406       .  A
C295        H311   1.083       .  S
C296        C297   1.406       .  A
C296        H312   1.084       .  S
C297        C307   1.410       .  A
C297        C298   1.412       .  A
C298        C304   1.411       .  A
C298        C299   1.411       .  A
C299        C301   1.410       .  A
C299        C300   1.413       .  A
C300        C308   1.411       .  A
C301        C310   1.392       .  A
C301        C302   1.401       .  A
C302        C303   1.393       .  A
C302        H313   1.084       .  S
C303        C304   1.401       .  A
C303        H314   1.083       .  S
C304        C305   1.395       .  A
C305        C306   1.404       .  A
C305        H315   1.084       .  S
C306        C307   1.408       .  A
C307        H316   1.084       .  S
C308        C309   1.409       .  A
C308        H317   1.084       .  S
C309        C310   1.403       .  A
C310        H318   1.085       .  S
C319        C320   1.400       .  A
C319        C324   1.403       .  A
C319        H335   1.083       .  S
C320        C321   1.404       .  A
C320        H336   1.084       .  S
C321        C331   1.405       .  A
C321        C322   1.412       .  A
C322        C328   1.412       .  A
C322        C323   1.413       .  A
C323        C325   1.412       .  A
C323        C324   1.412       .  A
C324        C332   1.404       .  A
C325        C334   1.404       .  A
C325        C326   1.403       .  A
C326        C327   1.400       .  A
C326        H337   1.084       .  S
C327        C328   1.404       .  A
C327        H338   1.083       .  S
C328        C329   1.405       .  A
C329        C330   1.406       .  A
C329        H339   1.084       .  S
C330        C331   1.406       .  A
C331        H340   1.084       .  S
C332        C333   1.404       .  A
C332        H341   1.084       .  S
C333        C334   1.405       .  A
C334        H342   1.085       .  S
C343        C344   1.403       .  A
C343        C348   1.405       .  A
C343        H359   1.084       .  S
C344        C345   1.405       .  A
C344        H360   1.083       .  S
C345        C355   1.410       .  A
C345        C346   1.413       .  A
C346        C352   1.411       .  A
C346        C347   1.414       .  A
C347        C349   1.410       .  A
C347        C348   1.413       .  A
C348        C356   1.411       .  A
C349        C358   1.400       .  A
C349        C350   1.403       .  A
C350        C351   1.397       .  A
C350        H361   1.083       .  S
C351        C352   1.402       .  A
C351        H362   1.084       .  S
C352        C353   1.400       .  A
C353        C354   1.405       .  A
C353        H363   1.085       .  S
C354        C355   1.406       .  A
C355        H364   1.084       .  S
C356        C357   1.408       .  A
C356        H365   1.084       .  S
C357        C358   1.407       .  A
C358        H366   1.084       .  S
In367       O369   2.230       .  S
In367       O370   2.244       .  S
In367       O378   2.208       .  S
In367       O372   2.267       .  S
In367       O374   2.280       .  S
In367       O375   2.265       .  S
In367       O376   2.217       .  S
In367       O379   2.224       .  S
C368        O374   1.267       .  A
C368        O376   1.258       .  A
C368        C720   1.476       .  S
O369        C377   1.263       .  A
O370        C377   1.267       .  A
C371        O378   1.262       .  A
C371        O372   1.268       .  A
C371        C672   1.477       .  S
C373        O375   1.264       .  A
C373        O379   1.260       .  A
C373        C651   1.479       .  S
C377        C699   1.472       .  S
In380       O382   2.209       .  S
In380       O383   2.268       .  S
In380       O391   2.209       .  S
In380       O385   2.249       .  S
In380       O387   2.251       .  S
In380       O388   2.275       .  S
In380       O389   2.208       .  S
In380       O392   2.191       .  S
C381        O387   1.269       .  A
C381        O389   1.265       .  A
O382        C390   1.264       .  A
O383        C390   1.271       .  A
C384        O391   1.264       .  A
C384        O385   1.268       .  A
C384        C600   1.476       .  S
C386        C576   1.480       .  S
C390        C723   1.484       .  S
In393       O395   2.244       .  S
In393       O396   2.256       .  S
In393       O404   2.221       .  S
In393       O398   2.259       .  S
In393       O400   2.274       .  S
In393       O401   2.270       .  S
In393       O402   2.196       .  S
In393       O405   2.220       .  S
C394        O400   1.267       .  A
C394        O402   1.260       .  A
C394        C624   1.472       .  S
O395        C403   1.263       .  A
O396        C403   1.266       .  A
C397        O404   1.263       .  A
C397        O398   1.267       .  A
C397        C528   1.481       .  S
C399        O401   1.266       .  A
C399        O405   1.260       .  A
C399        C555   1.480       .  S
C403        C696   1.480       .  S
In406       O408   2.210       .  S
In406       O409   2.260       .  S
In406       O417   2.209       .  S
In406       O411   2.247       .  S
In406       O413   2.257       .  S
In406       O414   2.281       .  S
In406       O415   2.222       .  S
In406       O418   2.199       .  S
C407        O413   1.263       .  A
C407        O415   1.261       .  A
C407        C504   1.469       .  S
O408        C416   1.262       .  A
O409        C416   1.269       .  A
C410        O417   1.263       .  A
C410        O411   1.266       .  A
C410        C579   1.472       .  S
C412        O414   1.266       .  A
C412        O418   1.258       .  A
C412        C603   1.478       .  S
C416        C483   1.475       .  S
In419       O421   2.230       .  S
In419       O422   2.255       .  S
In419       O430   2.213       .  S
In419       O424   2.271       .  S
In419       O426   2.247       .  S
In419       O427   2.265       .  S
In419       O428   2.228       .  S
In419       O431   2.196       .  S
C420        O426   1.266       .  A
C420        O428   1.261       .  A
C420        C480   1.467       .  S
O421        C429   1.261       .  A
O422        C429   1.265       .  A
C423        C648   1.479       .  S
C425        O427   1.267       .  A
C425        O431   1.262       .  A
C425        C675   1.475       .  S
C429        C456   1.477       .  S
In432       O434   2.214       .  S
In432       O435   2.269       .  S
In432       O443   2.208       .  S
In432       O437   2.261       .  S
In432       O439   2.258       .  S
In432       O440   2.268       .  S
In432       O441   2.194       .  S
In432       O444   2.202       .  S
C433        O439   1.271       .  A
C433        O441   1.265       .  A
C433        C507   1.478       .  S
O434        C442   1.263       .  A
O435        C442   1.270       .  A
C436        O443   1.263       .  A
C436        O437   1.268       .  A
C436        C552   1.480       .  S
C438        O440   1.270       .  A
C438        O444   1.263       .  A
C438        C531   1.478       .  S
C442        C459   1.480       .  S
C445        C446   1.402       .  A
C445        C450   1.404       .  A
C445        H461   1.083       .  S
C446        C447   1.404       .  A
C446        H462   1.083       .  S
C447        C457   1.406       .  A
C447        C448   1.411       .  A
C448        C454   1.412       .  A
C448        C449   1.413       .  A
C449        C451   1.410       .  A
C449        C450   1.413       .  A
C450        C458   1.410       .  A
C451        C460   1.400       .  A
C451        C452   1.403       .  A
C452        H463   1.083       .  S
C453        H464   1.084       .  S
C455        C456   1.406   1_554  A
C455        H465   1.085       .  S
C457        H466   1.084       .  S
C458        C459   1.407       .  A
C458        H467   1.084       .  S
C459        C460   1.406       .  A
C460        H468   1.084       .  S
C469        C470   1.396       .  A
C469        C474   1.403       .  A
C469        H485   1.083       .  S
C470        C471   1.401       .  A
C470        H486   1.084       .  S
C471        C481   1.399       .  A
C471        C472   1.413       .  A
C472        C478   1.412       .  A
C472        C473   1.411       .  A
C473        C475   1.413       .  A
C473        C474   1.410       .  A
C474        C482   1.398       .  A
C475        C484   1.407       .  A
C475        C476   1.404       .  A
C476        C477   1.402       .  A
C476        H487   1.084       .  S
C477        C478   1.405       .  A
C477        H488   1.083       .  S
C478        C479   1.406       .  A
C479        C480   1.406       .  A
C479        H489   1.084       .  S
C480        C481   1.400       .  A
C481        H490   1.085       .  S
C482        C483   1.405       .  A
C482        H491   1.084       .  S
C483        C484   1.405       .  A
C484        H492   1.084       .  S
C493        C494   1.394       .  A
C493        C498   1.402       .  A
C493        H509   1.084       .  S
C494        C495   1.401       .  A
C494        H510   1.083       .  S
C495        C505   1.396       .  A
C495        C496   1.412       .  A
C496        C502   1.412       .  A
C496        C497   1.411       .  A
C497        C499   1.413       .  A
C497        C498   1.410       .  A
C498        C506   1.394       .  A
C499        C508   1.410       .  A
C499        C500   1.405       .  A
C500        C501   1.403       .  A
C500        H511   1.083       .  S
C501        C502   1.405       .  A
C501        H512   1.084       .  S
C502        C503   1.408       .  A
C503        C504   1.407       .  A
C503        H513   1.084       .  S
C504        C505   1.400       .  A
C505        H514   1.085       .  S
C506        C507   1.404       .  A
C506        H515   1.085       .  S
C507        C508   1.408       .  A
C508        H516   1.084       .  S
C517        C518   1.396       .  A
C517        C522   1.402       .  A
C517        H533   1.084       .  S
C518        C519   1.402   1_545  A
C518        H534   1.083       .  S
C519        C529   1.399       .  A
C519        C520   1.411   1_565  A
C520        C526   1.412   1_545  A
C520        C521   1.413       .  A
C521        C523   1.413       .  A
C521        C522   1.410       .  A
C522        C530   1.397       .  A
C523        C532   1.410       .  A
C523        C524   1.405       .  A
C524        C525   1.403   1_545  A
C524        H535   1.083       .  S
C525        C526   1.405       .  A
C525        H536   1.084       .  S
C526        C527   1.408       .  A
C527        C528   1.408       .  A
C527        H537   1.084       .  S
C528        C529   1.406       .  A
C529        H538   1.084       .  S
C530        C531   1.405       .  A
C530        H539   1.085       .  S
C531        C532   1.407       .  A
C532        H540   1.084       .  S
C541        C542   1.396       .  A
C541        H557   1.083       .  S
C542        C543   1.402   1_565  A
C542        H558   1.084       .  S
C543        C553   1.398       .  A
C543        C544   1.411       .  A
C544        C550   1.412       .  A
C545        C547   1.412       .  A
C545        C546   1.411       .  A
C546        C554   1.399       .  A
C547        C556   1.409       .  A
C547        C548   1.405       .  A
C548        C549   1.402   1_566  A
C548        H559   1.084       .  S
C549        H560   1.083       .  S
C550        C551   1.409       .  A
C551        C552   1.408       .  A
C551        H561   1.084       .  S
C552        C553   1.406       .  A
C553        H562   1.085       .  S
C554        C555   1.406       .  A
C554        H563   1.084       .  S
C555        C556   1.407       .  A
C556        H564   1.084       .  S
C565        C566   1.394   1_655  A
C565        C570   1.401       .  A
C565        H581   1.084       .  S
C566        C567   1.402       .  A
C566        H582   1.083       .  S
C567        C577   1.394       .  A
C567        C568   1.409       .  A
C568        C574   1.414       .  A
C568        C569   1.411   1_455  A
C569        C571   1.411       .  A
C569        C570   1.412       .  A
C570        C578   1.395       .  A
C571        C580   1.407       .  A
C571        C572   1.405       .  A
C572        C573   1.403   1_655  A
C572        H583   1.083       .  S
C573        C574   1.405       .  A
C573        H584   1.084       .  S
C574        C575   1.411       .  A
C575        C576   1.408       .  A
C576        C577   1.406       .  A
C577        H586   1.084       .  S
C578        C579   1.403       .  A
C578        H587   1.085       .  S
C579        C580   1.407       .  A
C580        H588   1.084       .  S
C589        C590   1.403   1_655  A
C589        C594   1.405       .  A
C589        H605   1.084       .  S
C590        C591   1.405       .  A
C590        H606   1.083       .  S
C591        C601   1.407       .  A
C591        C592   1.411       .  A
C592        C598   1.411       .  A
C592        C593   1.411   1_455  A
C593        C595   1.409       .  A
C593        C594   1.413       .  A
C594        C602   1.410       .  A
C595        C604   1.395       .  A
C595        C596   1.402       .  A
C596        C597   1.394   1_655  A
C596        H607   1.083       .  S
C597        C598   1.402       .  A
C597        H608   1.084       .  S
C598        C599   1.397       .  A
C599        C600   1.404       .  A
C599        H609   1.085       .  S
C600        C601   1.407       .  A
C601        H610   1.084       .  S
C602        C603   1.407       .  A
C602        H611   1.084       .  S
C603        C604   1.405       .  A
C604        H612   1.084       .  S
C613        C614   1.394       .  A
C613        C618   1.401       .  A
C613        H629   1.083       .  S
C614        C615   1.401       .  A
C614        H630   1.084       .  S
C615        C625   1.394       .  A
C615        C616   1.410       .  A
C616        C622   1.414       .  A
C616        C617   1.411       .  A
C617        C619   1.412       .  A
C617        C618   1.411       .  A
C618        C626   1.396       .  A
C619        C620   1.405       .  A
C620        C621   1.403       .  A
C620        H631   1.084       .  S
C621        C622   1.405       .  A
C621        H632   1.083       .  S
C622        C623   1.410       .  A
C623        C624   1.407       .  A
C623        H633   1.084       .  S
C624        C625   1.402       .  A
C625        H634   1.085       .  S
C626        C627   1.403       .  A
C626        H635   1.084       .  S
C628        H636   1.084       .  S
C637        C638   1.395       .  A
C637        C642   1.402       .  A
C637        H653   1.084       .  S
C638        C639   1.402       .  A
C638        H654   1.084       .  S
C639        C649   1.397       .  A
C639        C640   1.410       .  A
C640        C646   1.413       .  A
C640        C641   1.412       .  A
C641        C643   1.412       .  A
C641        C642   1.411       .  A
C642        C650   1.398       .  A
C643        C652   1.408       .  A
C643        C644   1.405       .  A
C644        C645   1.403       .  A
C644        H655   1.083       .  S
C645        C646   1.405       .  A
C645        H656   1.083       .  S
C646        C647   1.409       .  A
C647        C648   1.408       .  A
C647        H657   1.084       .  S
C648        C649   1.405       .  A
C649        H658   1.084       .  S
C650        C651   1.405       .  A
C650        H659   1.084       .  S
C651        C652   1.408       .  A
C652        H660   1.084       .  S
C661        C662   1.404       .  A
C661        C666   1.406       .  A
C661        H677   1.083       .  S
C662        C663   1.406       .  A
C662        H678   1.084       .  S
C663        C673   1.410       .  A
C663        C664   1.412       .  A
C664        C670   1.411       .  A
C664        C665   1.411       .  A
C665        C667   1.410       .  A
C665        C666   1.413       .  A
C666        C674   1.411       .  A
C667        C676   1.392       .  A
C667        C668   1.401       .  A
C668        C669   1.393       .  A
C668        H679   1.084       .  S
C669        C670   1.401       .  A
C669        H680   1.083       .  S
C670        C671   1.395       .  A
C671        C672   1.404       .  A
C671        H681   1.084       .  S
C672        C673   1.408       .  A
C673        H682   1.084       .  S
C674        C675   1.409       .  A
C674        H683   1.084       .  S
C675        C676   1.403       .  A
C676        H684   1.085       .  S
C685        C686   1.400       .  A
C685        C690   1.403       .  A
C685        H701   1.083       .  S
C686        C687   1.404       .  A
C686        H702   1.084       .  S
C687        C697   1.405       .  A
C687        C688   1.412       .  A
C688        C694   1.412       .  A
C688        C689   1.413       .  A
C689        C691   1.412       .  A
C689        C690   1.412       .  A
C690        C698   1.404       .  A
C691        C700   1.404       .  A
C691        C692   1.403       .  A
C692        C693   1.400       .  A
C692        H703   1.084       .  S
C693        C694   1.404       .  A
C693        H704   1.083       .  S
C694        C695   1.405       .  A
C695        C696   1.406       .  A
C695        H705   1.084       .  S
C696        C697   1.406       .  A
C697        H706   1.084       .  S
C698        C699   1.404       .  A
C698        H707   1.084       .  S
C699        C700   1.405       .  A
C700        H708   1.085       .  S
C709        C710   1.403       .  A
C709        C714   1.405       .  A
C709        H725   1.084       .  S
C710        C711   1.405       .  A
C710        H726   1.083       .  S
C711        C721   1.410       .  A
C711        C712   1.413       .  A
C712        C718   1.411       .  A
C712        C713   1.414       .  A
C713        C715   1.410       .  A
C713        C714   1.413       .  A
C714        C722   1.411       .  A
C715        C724   1.400       .  A
C715        C716   1.403       .  A
C716        C717   1.397       .  A
C716        H727   1.083       .  S
C717        C718   1.402       .  A
C717        H728   1.084       .  S
C718        C719   1.400       .  A
C719        C720   1.405       .  A
C719        H729   1.085       .  S
C720        C721   1.406       .  A
C721        H730   1.084       .  S
C722        C723   1.408       .  A
C722        H731   1.084       .  S
C723        C724   1.407       .  A
C724        H732   1.084       .  S
