geometry optimzed in LAMMPS
_audit_creation_date              2020-12-01 
_audit_creation_method            'lammps2cif' 
_symmetry_space_group_name_H-M    'P1' 
_symmetry_Int_Tables_number       1 
_symmetry_cell_setting            triclinic 
loop_ 
_symmetry_equiv_pos_as_xyz 
  x,y,z 
_cell_length_a                    32.33253595 
_cell_length_b                    31.926223494307088 
_cell_length_c                    72.75769418407211 
_cell_angle_alpha                 90.01035898086295 
_cell_angle_beta                  89.88509199740494 
_cell_angle_gamma                 89.84007022230125 
loop_ 
_atom_site_label 
_atom_site_type_symbol 
_atom_site_fract_x 
_atom_site_fract_y 
_atom_site_fract_z 
_atom_site_charge 
In1        In  0.92505773  0.75467746  0.31457931     1.36900
C2          C  0.00049143  0.72793253  0.30594518     0.78300
O3          O  0.90440839  0.69263795  0.30394621    -0.60100
O4          O  0.89150773  0.74614437  0.28776649    -0.51100
C5          C  0.86787779  0.74819860  0.34079310     0.71000
O6          O  0.90386007  0.73286244  0.34280284    -0.45900
C7          C  0.94112975  0.83622877  0.31591919     0.75700
O8          O  0.98367683  0.71755822  0.32104258    -0.57800
O9          O  0.91866202  0.81963966  0.30377748    -0.47900
O10         O  0.97942981  0.75336885  0.29657509    -0.54200
C11         C  0.88892517  0.70682615  0.28928674     0.85900
O12         O  0.86291798  0.76706252  0.32579779    -0.56100
O13         O  0.95385871  0.81078229  0.32800962    -0.59400
In14       In  0.09175287  0.20546768  0.31125752     1.36900
C15         C  0.01910251  0.23567414  0.30120622     0.78300
O16         O  0.11371267  0.26892651  0.30406000    -0.60100
O17         O  0.12913939  0.21895383  0.28582628    -0.51100
C18         C  0.14949055  0.20498813  0.33749187     0.71000
O19         O  0.11433365  0.22219651  0.33975049    -0.45900
C20         C  0.06216590  0.12815870  0.31353213     0.75700
O21         O  0.03446192  0.24414242  0.31684862    -0.57800
O22         O  0.08785028  0.13875629  0.30114709    -0.47900
O23         O  0.04109466  0.21217840  0.29117813    -0.54200
C24         C  0.13153979  0.25785713  0.28939005     0.85900
O25         O  0.15355187  0.18710000  0.32211960    -0.56100
O26         O  0.05449156  0.15639977  0.32522883    -0.59400
In27       In  0.43332850  0.21535603  0.46033192     1.36900
C28         C  0.51071925  0.23627156  0.46745186     0.78300
O29         O  0.41872639  0.28143428  0.46781496    -0.60100
O30         O  0.39680568  0.23338634  0.48542774    -0.51100
C31         C  0.37695734  0.21589531  0.43366075     0.71000
O32         O  0.41196090  0.23325166  0.43184521    -0.45900
C33         C  0.45390494  0.13499729  0.46093810     0.75700
O34         O  0.49436145  0.24492454  0.45204406    -0.57800
O35         O  0.43257384  0.15163437  0.47367209    -0.47900
O36         O  0.48720885  0.21784182  0.47866799    -0.54200
C37         C  0.39918555  0.27233201  0.48231824     0.85900
O38         O  0.37169540  0.19792064  0.44895331    -0.56100
O39         O  0.46133224  0.15904061  0.44757147    -0.59400
In40       In  0.58209970  0.75612824  0.46160945     1.36900
C41         C  0.50609179  0.72661049  0.46344439     0.78300
O42         O  0.60119944  0.69324799  0.47118220    -0.60100
O43         O  0.61488774  0.74496097  0.48837654    -0.51100
C44         C  0.64118531  0.74923526  0.43635775     0.71000
O45         O  0.60711100  0.73026706  0.43510551    -0.45900
C46         C  0.56134923  0.83680756  0.46373241     0.75700
O47         O  0.52410569  0.73147598  0.44815910    -0.57800
O48         O  0.57943537  0.81758419  0.47657394    -0.47900
O49         O  0.52693388  0.73656443  0.47734680    -0.54200
C50         C  0.61663663  0.70573586  0.48611736     0.85900
O51         O  0.64401610  0.77304811  0.45013316    -0.56100
O52         O  0.55578459  0.81473624  0.44955971    -0.59400
In53       In  0.23097280  0.89391328  0.71336013     1.36900
C54         C  0.26745449  0.96733096  0.71928265     0.78300
O55         O  0.17915452  0.93039992  0.70156865    -0.60100
O56         O  0.16759812  0.89369025  0.72539564    -0.51100
C57         C  0.22723504  0.84254312  0.68461799     0.71000
O58         O  0.24431961  0.87810904  0.68384965    -0.45900
C59         C  0.27184034  0.85306327  0.73905408     0.75700
O60         O  0.27848232  0.94355546  0.70625527    -0.57800
O61         O  0.23465203  0.86403788  0.74113515    -0.47900
O62         O  0.23767079  0.95331340  0.72854432    -0.54200
C63         C  0.15370147  0.91969306  0.71387697     0.85900
O64         O  0.21278451  0.83372144  0.70021807    -0.56100
O65         O  0.28710919  0.86086784  0.72347543    -0.59400
In66       In  0.78987828  0.06471634  0.71741091     1.36900
C67         C  0.75969547  0.98985613  0.72488420     0.78300
O68         O  0.84138971  0.03016578  0.70403869    -0.60100
O69         O  0.85510503  0.06836692  0.72729011    -0.51100
C70         C  0.78664407  0.11993010  0.69044229     0.71000
O71         O  0.76946160  0.08448170  0.68917742    -0.45900
C72         C  0.74331867  0.10530775  0.74149800     0.75700
O73         O  0.75344093  0.00740211  0.70952495    -0.57800
O74         O  0.78140037  0.09865281  0.74429726    -0.47900
O75         O  0.78188711  0.01067187  0.73579206    -0.54200
C76         C  0.86829354  0.04335116  0.71514207     0.85900
O77         O  0.80563361  0.12604635  0.70532342    -0.56100
O78         O  0.72981941  0.09099907  0.72652652    -0.59400
In79       In  0.77919140  0.39831439  0.56602217     1.36900
C80         C  0.74366772  0.46924896  0.55610615     0.78300
O81         O  0.82716015  0.44184914  0.57651065    -0.60100
O82         O  0.84347730  0.40126896  0.55439326    -0.51100
C83         C  0.78187222  0.34992358  0.59557409     0.71000
O84         O  0.75998631  0.38276936  0.59489586    -0.45900
C85         C  0.73314878  0.34908254  0.54492110     0.75700
O86         O  0.74028404  0.45505857  0.57230019    -0.57800
O87         O  0.77141067  0.35447520  0.54194668    -0.47900
O88         O  0.76439693  0.44643204  0.54529998    -0.54200
C89         C  0.85410962  0.43099940  0.56489524     0.85900
O90         O  0.80355206  0.34345484  0.58140295    -0.56100
O91         O  0.71974385  0.36826169  0.55883511    -0.59400
In92       In  0.21431673  0.58678484  0.55011758     1.36900
C93         C  0.25310933  0.51552209  0.54238303     0.78300
O94         O  0.16710285  0.55026810  0.56525197    -0.60100
O95         O  0.14768790  0.58365732  0.54157846    -0.51100
C96         C  0.21660387  0.64359617  0.57669127     0.71000
O97         O  0.23486469  0.60853015  0.57791322    -0.45900
C98         C  0.25617585  0.62868894  0.52524648     0.75700
O99         O  0.25805883  0.53443523  0.55750146    -0.57800
O100        O  0.21874292  0.61875856  0.52265680    -0.47900
O101        O  0.22694939  0.53256706  0.53191855    -0.54200
C102        C  0.13767264  0.55964155  0.55470035     0.85900
O103        O  0.19710476  0.64870666  0.56187379    -0.56100
O104        O  0.27080316  0.61846921  0.54066177    -0.59400
In105      In  0.91213116  0.69704248  0.96788454     1.36900
C106        C  0.98636328  0.73108870  0.97120357     0.78300
O107        O  0.89061920  0.75943332  0.97719331    -0.60100
O108        O  0.87586985  0.70757399  0.99422297    -0.51100
C109        C  0.85658144  0.69605679  0.94073192     0.71000
O110        O  0.88890478  0.71814721  0.94013818    -0.45900
C111        C  0.93775235  0.61803262  0.96873998     0.75700
O112        O  0.96649674  0.73261957  0.95625707    -0.57800
O113        O  0.91444696  0.63312176  0.98106868    -0.47900
O114        O  0.96854662  0.71188514  0.98411260    -0.54200
C115        C  0.87377424  0.74673973  0.99177289     0.85900
O116        O  0.85303561  0.67439970  0.95511620    -0.56100
O117        O  0.94692950  0.64332457  0.95605701    -0.59400
In118      In  0.07452685  0.24558587  0.95241139     1.36900
C119        C  0.99827041  0.21523660  0.95517733     0.78300
O120        O  0.09118945  0.18323567  0.96372431    -0.60100
O121        O  0.10564599  0.23678439  0.97962697    -0.51100
C122        C  0.13420060  0.24542819  0.92696782     0.71000
O123        O  0.09699927  0.23703875  0.92310699    -0.45900
C124        C  0.05325802  0.32592318  0.95405948     0.75700
O125        O  0.02263562  0.20279222  0.94263803    -0.57800
O126        O  0.07279663  0.30754647  0.96677457    -0.47900
O127        O  0.01301619  0.24264793  0.96568720    -0.54200
C128        C  0.10616854  0.19732811  0.97849762     0.85900
O129        O  0.14060384  0.25345258  0.94365849    -0.56100
O130        O  0.04727512  0.30340116  0.94008669    -0.59400
In131      In  0.57877178  0.71016374  0.81627231     1.36900
C132        C  0.50545468  0.74417745  0.81070200     0.78300
O133        O  0.60234607  0.77270662  0.80794688    -0.60100
O134        O  0.61485654  0.72082739  0.79044484    -0.51100
C135        C  0.63440605  0.70842102  0.84317988     0.71000
O136        O  0.59956897  0.72609949  0.84493470    -0.45900
C137        C  0.55551336  0.63085382  0.81485851     0.75700
O138        O  0.52183542  0.74427666  0.82649580    -0.57800
O139        O  0.57844435  0.64714731  0.80276310    -0.47900
O140        O  0.52629377  0.72656840  0.79825305    -0.54200
C141        C  0.61881917  0.75968413  0.79325266     0.85900
O142        O  0.64027015  0.69181023  0.82766662    -0.56100
O143        O  0.54512182  0.65524009  0.82770998    -0.59400
In144      In  0.43231856  0.25240756  0.81095858     1.36900
C145        C  0.50972137  0.22288129  0.81008009     0.78300
O146        O  0.41897730  0.19104043  0.79820781    -0.60100
O147        O  0.40179731  0.24505256  0.78309703    -0.51100
C148        C  0.37137521  0.24699078  0.83583291     0.71000
O149        O  0.40848437  0.23754915  0.83941098    -0.45900
C150        C  0.45099029  0.33339320  0.81279533     0.75700
O151        O  0.48325671  0.20964016  0.82150149    -0.57800
O152        O  0.43724268  0.31655921  0.79829155    -0.47900
O153        O  0.49675065  0.25176491  0.79979143    -0.54200
C154        C  0.40285468  0.20547848  0.78376398     0.85900
O155        O  0.36538781  0.25828987  0.81944442    -0.56100
O156        O  0.45250851  0.30894063  0.82635444    -0.59400
In157      In  0.71339535  0.07765299  0.05060906     1.36900
C158        C  0.74202295  0.00017390  0.04560622     0.78300
O159        O  0.65929252  0.04683492  0.06345806    -0.60100
O160        O  0.64993231  0.07633449  0.03768347    -0.51100
C161        C  0.71981984  0.13048068  0.07902298     0.71000
O162        O  0.73872273  0.09590207  0.07827006    -0.45900
C163        C  0.76030342  0.11806769  0.02645845     0.75700
O164        O  0.74425150  0.01865577  0.06092493    -0.57800
O165        O  0.72139455  0.11647798  0.02479934    -0.47900
O166        O  0.72571686  0.02199994  0.03311542    -0.54200
C167        C  0.63481365  0.05404433  0.05036516     0.85900
O168        O  0.69713728  0.13734682  0.06522484    -0.56100
O169        O  0.77427340  0.09900631  0.04027269    -0.59400
In170      In  0.27379241  0.89752795  0.05622910     1.36900
C171        C  0.23860095  0.97162717  0.05103119     0.78300
O172        O  0.32753621  0.93245281  0.06764310    -0.60100
O173        O  0.33612407  0.89785244  0.04306845    -0.51100
C174        C  0.27725748  0.84440561  0.08417363     0.71000
O175        O  0.25483472  0.87691106  0.08456512    -0.45900
C176        C  0.22864761  0.85505935  0.03234337     0.75700
O177        O  0.23419034  0.95194446  0.06598151    -0.57800
O178        O  0.26585225  0.86437308  0.02913180    -0.47900
O179        O  0.26114529  0.95344668  0.03936599    -0.54200
C180        C  0.35196504  0.92191080  0.05485929     0.85900
O181        O  0.29765814  0.83953223  0.06955565    -0.56100
O182        O  0.21553373  0.86623669  0.04790889    -0.59400
In183      In  0.73068130  0.40007177  0.20950935     1.36900
C184        C  0.76065064  0.47529978  0.21744003     0.78300
O185        O  0.67792847  0.43371898  0.19692984    -0.60100
O186        O  0.66673558  0.40144160  0.22203359    -0.51100
C187        C  0.73147849  0.34759835  0.18094856     0.71000
O188        O  0.74948328  0.38272363  0.18064162    -0.45900
C189        C  0.78204512  0.35593896  0.23035346     0.75700
O190        O  0.76590800  0.45840585  0.20185180    -0.57800
O191        O  0.74364568  0.35784624  0.23386452    -0.47900
O192        O  0.73989628  0.45360727  0.22863184    -0.54200
C193        C  0.65266189  0.42541242  0.20962325     0.85900
O194        O  0.71231800  0.34044122  0.19576500    -0.56100
O195        O  0.79310951  0.37718877  0.21664113    -0.59400
In196      In  0.28333197  0.56542008  0.20926236     1.36900
C197        C  0.25411583  0.48963711  0.21572336     0.78300
O198        O  0.33537294  0.53325040  0.19492714    -0.60100
O199        O  0.34818500  0.56458681  0.21998186    -0.51100
C200        C  0.28085602  0.62394972  0.18343919     0.71000
O201        O  0.26521983  0.58798408  0.18106511    -0.45900
C202        C  0.23336411  0.60097620  0.23357220     0.75700
O203        O  0.24528308  0.50911359  0.20105013    -0.57800
O204        O  0.27205481  0.59907418  0.23623001    -0.47900
O205        O  0.27775086  0.50885952  0.22656230    -0.54200
C206        C  0.36193674  0.54197622  0.20699308     0.85900
O207        O  0.29840977  0.62876561  0.19874285    -0.56100
O208        O  0.22158377  0.58687171  0.21829366    -0.59400
C209        C  0.46205323  0.48456175  0.19379824    -0.11200
C210        C  0.48549907  0.49077202  0.20971807     0.11400
C211        C  0.46996039  0.51661874  0.22392717    -0.03000
C212        C  0.42964799  0.53274625  0.22231549    -0.05700
C213        C  0.40518770  0.52555705  0.20665567    -0.16500
C214        C  0.42233998  0.50221209  0.19174097     0.02400
C215        C  0.52793661  0.47309330  0.21026776     0.12400
C216        C  0.49609266  0.52771085  0.24057770     0.63000
H217        H  0.41694075  0.55127794  0.23343912     0.12400
C218        C  0.40000505  0.49664191  0.17352054     0.55100
H219        H  0.47557840  0.46601847  0.18284934     0.08200
C220        C  0.53650382  0.43217773  0.21673988    -0.05600
C221        C  0.57782692  0.41794819  0.21666843    -0.06300
C222        C  0.61015149  0.44299898  0.20993152    -0.15900
C223        C  0.60134961  0.48431545  0.20372933    -0.01500
C224        C  0.56013035  0.49827097  0.20377889    -0.09100
C225        C  0.50201312  0.40319480  0.22295260     0.65200
H226        H  0.58505600  0.38658156  0.22135396     0.10700
C227        C  0.63519041  0.51445608  0.19779438     0.63600
H228        H  0.55251681  0.52932586  0.19880241     0.08000
F229        F  0.42467448  0.47700373  0.16051530    -0.19400
F230        F  0.38897757  0.53541168  0.16654390    -0.15700
F231        F  0.36507984  0.47235974  0.17593397    -0.19100
F232        F  0.53165919  0.54799745  0.23498547    -0.22500
F233        F  0.50693948  0.49188192  0.25006411    -0.24000
F234        F  0.47520031  0.55398415  0.25257833    -0.18000
F235        F  0.65254073  0.50132953  0.18139057    -0.20500
F236        F  0.66542254  0.51636959  0.21119223    -0.21600
F237        F  0.62011621  0.55465778  0.19519132    -0.18800
F238        F  0.51735409  0.36618258  0.23018129    -0.18900
F239        F  0.47715916  0.39353735  0.20811931    -0.22700
F240        F  0.47809589  0.42220244  0.23633361    -0.24400
C241        C  0.31367501  0.76343923  0.11898745    -0.11200
C242        C  0.27594959  0.75166053  0.12691564     0.11400
C243        C  0.23902400  0.77239025  0.12172566    -0.03000
C244        C  0.24096330  0.80321173  0.10793779    -0.05700
C245        C  0.27845578  0.81366280  0.09935539    -0.16500
C246        C  0.31569003  0.79422521  0.10520139     0.02400
C247        C  0.27645234  0.71833487  0.14109998     0.12400
C248        C  0.19788810  0.76194985  0.13072735     0.63000
H249        H  0.21297558  0.81888419  0.10347885     0.12400
C250        C  0.35746561  0.80637047  0.09726135     0.55100
H251        H  0.34157900  0.74779258  0.12357333     0.08200
C252        C  0.27623340  0.67529509  0.13649035    -0.05600
C253        C  0.27662199  0.64555731  0.15077176    -0.06300
C254        C  0.27908756  0.65758541  0.16932728    -0.15900
C255        C  0.28003580  0.70099015  0.17384592    -0.01500
C256        C  0.27854722  0.73053994  0.15953142    -0.09100
C257        C  0.27716902  0.66095957  0.11658033     0.65200
H258        H  0.27645544  0.61247568  0.14748903     0.10700
C259        C  0.28214803  0.71657161  0.19357425     0.63600
H260        H  0.27947892  0.76374425  0.16255984     0.08000
F261        F  0.38978945  0.78928350  0.10724501    -0.19400
F262        F  0.36184945  0.84947347  0.09752607    -0.15700
F263        F  0.36070581  0.79209870  0.07937685    -0.19100
F264        F  0.19954414  0.77124227  0.14926516    -0.22500
F265        F  0.18928984  0.71984799  0.12859883    -0.24000
F266        F  0.16559141  0.78457498  0.12311854    -0.18000
F267        F  0.27771858  0.75965687  0.19467534    -0.20500
F268        F  0.32007775  0.70627885  0.20110122    -0.21600
F269        F  0.25077852  0.69874934  0.20387542    -0.18800
F270        F  0.27366385  0.61788690  0.11508807    -0.18900
F271        F  0.31420108  0.67273722  0.10860875    -0.22700
F272        F  0.24495359  0.67891599  0.10689266    -0.24400
C273        C  0.74784375  0.18535018  0.12441861    -0.11200
C274        C  0.72694868  0.22355640  0.12228324     0.11400
C275        C  0.70509492  0.23159584  0.10584914    -0.03000
C276        C  0.70365300  0.20021743  0.09229068    -0.05700
C277        C  0.72367207  0.16127589  0.09444946    -0.16500
C278        C  0.74641682  0.15367940  0.11089647     0.02400
C279        C  0.72841829  0.25459663  0.13756174     0.12400
C280        C  0.68381510  0.27341340  0.10254624     0.63000
H281        H  0.68691218  0.20625795  0.07969950     0.12400
C282        C  0.76882043  0.11257671  0.11449060     0.55100
H283        H  0.76501438  0.18046680  0.13700505     0.08200
C284        C  0.70230733  0.25140536  0.15311342    -0.05600
C285        C  0.70451290  0.28255099  0.16675546    -0.06300
C286        C  0.73201442  0.31660160  0.16550295    -0.15900
C287        C  0.75915349  0.31892270  0.15008567    -0.01500
C288        C  0.75677638  0.28762909  0.13641840    -0.09100
C289        C  0.67183138  0.21551043  0.15519265     0.65200
H290        H  0.68420860  0.28053919  0.17856189     0.10700
C291        C  0.79098594  0.35351314  0.14800659     0.63600
H292        H  0.77699786  0.28870710  0.12454620     0.08000
F293        F  0.78738162  0.11185973  0.13162700    -0.19400
F294        F  0.79950659  0.10665526  0.10146690    -0.15700
F295        F  0.74103865  0.07973725  0.11383460    -0.19100
F296        F  0.71303754  0.30488483  0.10181531    -0.22500
F297        F  0.65621552  0.28188263  0.11660296    -0.24000
F298        F  0.66211201  0.27382476  0.08616222    -0.18000
F299        F  0.81514848  0.34824129  0.13243616    -0.20500
F300        F  0.81706017  0.35361397  0.16306205    -0.21600
F301        F  0.77128459  0.39186651  0.14654970    -0.18800
F302        F  0.64965931  0.21816908  0.17145382    -0.18900
F303        F  0.69267648  0.17766639  0.15519319    -0.22700
F304        F  0.64400732  0.21603689  0.14079918    -0.24400
C305        C  0.52063850  0.03086465  0.04116112    -0.11200
C306        C  0.51588274  0.99399244  0.05139928     0.11400
C307        C  0.55024020  0.97610115  0.06044008    -0.03000
C308        C  0.58813890  0.99726438  0.05972605    -0.05700
C309        C  0.59304752  0.03489464  0.04990060    -0.16500
C310        C  0.55885700  0.05181227  0.04015033     0.02400
C311        C  0.47421143  0.97517092  0.05265810     0.12400
C312        C  0.54699312  0.93464859  0.07062139     0.63000
H313        H  0.61467391  0.98397580  0.06668760     0.12400
C314        C  0.56209526  0.09186494  0.02901903     0.55100
H315        H  0.49384232  0.04321580  0.03405640     0.08200
C316        C  0.44462706  0.98982251  0.06544839    -0.05600
C317        C  0.40565975  0.97062323  0.06592338    -0.06300
C318        C  0.39503533  0.93807056  0.05377484    -0.15900
C319        C  0.42504565  0.92341708  0.04091132    -0.01500
C320        C  0.46423997  0.94250219  0.04064521    -0.09100
C321        C  0.45391972  0.02626579  0.07823544     0.65200
H322        H  0.38270648  0.98189668  0.07558950     0.10700
C323        C  0.41629935  0.88819955  0.02741551     0.63600
H324        H  0.48755219  0.93241737  0.03088021     0.08000
F325        F  0.52399524  0.10467811  0.02236534    -0.19400
F326        F  0.58800508  0.08548908  0.01413253    -0.15700
F327        F  0.57753494  0.12373235  0.03987840    -0.19100
F328        F  0.53692710  0.90316658  0.05839204    -0.22500
F329        F  0.51678647  0.93705796  0.08404859    -0.24000
F330        F  0.58385398  0.92375387  0.07904464    -0.18000
F331        F  0.38620186  0.90077215  0.01509105    -0.20500
F332        F  0.40319696  0.85293338  0.03679280    -0.21600
F333        F  0.45110610  0.87713337  0.01739461    -0.18800
F334        F  0.42171721  0.03392165  0.09035792    -0.18900
F335        F  0.46027931  0.06217655  0.06801797    -0.22700
F336        F  0.48897921  0.01788601  0.08844993    -0.24400
C337        C  0.50094971  0.43664998  0.82764697    -0.11200
C338        C  0.49199754  0.46201533  0.81251741     0.11400
C339        C  0.47101427  0.44506506  0.79722391    -0.03000
C340        C  0.45712550  0.40337769  0.79817807    -0.05700
C341        C  0.46521774  0.37777126  0.81352917    -0.16500
C342        C  0.48864398  0.39449892  0.82841229     0.02400
C343        C  0.50728677  0.50568372  0.81288898     0.12400
C344        C  0.46428375  0.47059125  0.77985185     0.63000
H345        H  0.44026650  0.39028910  0.78670505     0.12400
C346        C  0.50212564  0.36835299  0.84482993     0.55100
H347        H  0.51825348  0.45037363  0.83885832     0.08200
C348        C  0.48452017  0.53827911  0.82136929    -0.05600
C349        C  0.50132662  0.57878349  0.82144058    -0.06300
C350        C  0.54058664  0.58714915  0.81401403    -0.15900
C351        C  0.56463019  0.55379426  0.80676168    -0.01500
C352        C  0.54711881  0.51353398  0.80607685    -0.09100
C353        C  0.44337824  0.53003167  0.83082356     0.65200
H354        H  0.48394394  0.60431402  0.82750618     0.10700
C355        C  0.60912685  0.56004598  0.80064339     0.63600
H356        H  0.56457884  0.48756522  0.80038996     0.08000
F357        F  0.46786123  0.35546308  0.85468040    -0.19400
F358        F  0.52723041  0.39064602  0.85670899    -0.15700
F359        F  0.52443570  0.33387149  0.83886398    -0.19100
F360        F  0.50196499  0.48360987  0.77292673    -0.22500
F361        F  0.44023546  0.50536356  0.78366270    -0.24000
F362        F  0.44466799  0.44755977  0.76632009    -0.18000
F363        F  0.63097752  0.58078074  0.81420859    -0.20500
F364        F  0.61014275  0.58322436  0.78460523    -0.21600
F365        F  0.62892254  0.52226177  0.79736515    -0.18800
F366        F  0.42634679  0.56628108  0.83809623    -0.18900
F367        F  0.44903704  0.50197043  0.84507124    -0.22700
F368        F  0.41544894  0.51345878  0.81848149    -0.24400
C369        C  0.85229440  0.17411795  0.00529790    -0.11200
C370        C  0.84429097  0.16896850  0.98654255     0.11400
C371        C  0.80654486  0.15102039  0.98079437    -0.03000
C372        C  0.77843279  0.13698071  0.99429683    -0.05700
C373        C  0.78789310  0.13933518  0.01313531    -0.16500
C374        C  0.82483022  0.15951152  0.01878389     0.02400
C375        C  0.87816706  0.17998937  0.97368155     0.12400
C376        C  0.79685878  0.14579261  0.96054791     0.63000
H377        H  0.74992681  0.12192189  0.99020098     0.12400
C378        C  0.83621077  0.16476658  0.03890596     0.55100
H379        H  0.88142134  0.18810544  0.00930144     0.08200
C380        C  0.88653583  0.22183841  0.96838348    -0.05600
C381        C  0.92490900  0.23086408  0.96027435    -0.06300
C382        C  0.95558629  0.20012198  0.95803352    -0.15900
C383        C  0.94647946  0.15792509  0.96235977    -0.01500
C384        C  0.90738191  0.14848955  0.96985435    -0.09100
C385        C  0.85733385  0.25850484  0.97152464     0.65200
H386        H  0.93219730  0.26311066  0.95687270     0.10700
C387        C  0.97888630  0.12372841  0.96053074     0.63600
H388        H  0.90050828  0.11681425  0.97421382     0.08000
F389        F  0.80244231  0.17896584  0.04885332    -0.19400
F390        F  0.86778718  0.19349865  0.04118110    -0.15700
F391        F  0.84942899  0.12679150  0.04593567    -0.19100
F392        F  0.82492772  0.11836974  0.95267650    -0.22500
F393        F  0.79947951  0.18409848  0.95175753    -0.24000
F394        F  0.75746366  0.13011513  0.95780862    -0.18000
F395        F  0.01232213  0.13276192  0.97166377    -0.20500
F396        F  0.99196596  0.12108216  0.94247053    -0.21600
F397        F  0.96360699  0.08494008  0.96564299    -0.18800
F398        F  0.84558040  0.27463575  0.95468104    -0.18900
F399        F  0.87763575  0.28944392  0.98128400    -0.22700
F400        F  0.82198211  0.24792512  0.98112647    -0.24400
C401        C  0.15965707  0.05784055  0.04262801    -0.11200
C402        C  0.18119561  0.08120114  0.02941771     0.11400
C403        C  0.22360412  0.07324303  0.02620482    -0.03000
C404        C  0.24197511  0.03883204  0.03493119    -0.05700
C405        C  0.21937747  0.01248653  0.04666107    -0.16500
C406        C  0.17809947  0.02317220  0.05139405     0.02400
C407        C  0.15780635  0.11040606  0.01753943     0.12400
C408        C  0.24888038  0.10006277  0.01310879     0.63000
H409        H  0.27389615  0.03094051  0.03192622     0.12400
C410        C  0.15288033  0.99695188  0.06467027     0.55100
H411        H  0.12745805  0.06543743  0.04511453     0.08200
C412        C  0.13824519  0.09608968  0.00137759    -0.05600
C413        C  0.12206428  0.12575013  0.98914359    -0.06300
C414        C  0.12296614  0.16895925  0.99292718    -0.15900
C415        C  0.13902974  0.18282613  0.01010193    -0.01500
C416        C  0.15708725  0.15305717  0.02195042    -0.09100
C417        C  0.13412468  0.04961278  0.99717073     0.65200
H418        H  0.10838008  0.11506107  0.97642454     0.10700
C419        C  0.13675509  0.22826035  0.01622137     0.63600
H420        H  0.17136441  0.16280196  0.03470107     0.08000
F421        F  0.14909295  0.95660011  0.05797317    -0.19400
F422        F  0.11349586  0.01314406  0.06720809    -0.15700
F423        F  0.17220998  0.99596978  0.08160032    -0.19100
F424        F  0.24905571  0.14103184  0.01925464    -0.22500
F425        F  0.23203982  0.09874338  0.99566906    -0.24000
F426        F  0.28953131  0.08652955  0.01191422    -0.18000
F427        F  0.15118185  0.23351975  0.03397805    -0.20500
F428        F  0.09606415  0.24178207  0.01587089    -0.21600
F429        F  0.16052879  0.25298278  0.00474620    -0.18800
F430        F  0.11456381  0.04260598  0.98054260    -0.18900
F431        F  0.11089757  0.03064023  0.01078152    -0.22700
F432        F  0.17268538  0.03088646  0.99640276    -0.24400
C433        C  0.20420033  0.27494402  0.88684739    -0.11200
C434        C  0.23562750  0.24469035  0.88841028     0.11400
C435        C  0.23437820  0.21564962  0.90315497    -0.03000
C436        C  0.20027819  0.21645603  0.91526916    -0.05700
C437        C  0.16812442  0.24566808  0.91325604    -0.16500
C438        C  0.17059599  0.27626033  0.89923684     0.02400
C439        C  0.26997009  0.24482552  0.87464435     0.12400
C440        C  0.26905113  0.18419641  0.90614110     0.63000
H441        H  0.19846766  0.19430059  0.92651373     0.12400
C442        C  0.13880143  0.31116254  0.89800812     0.55100
H443        H  0.20643118  0.29776824  0.87588326     0.08200
C444        C  0.26599514  0.22568909  0.85715945    -0.05600
C445        C  0.30003327  0.22637244  0.84496582    -0.06300
C446        C  0.33748591  0.24583077  0.84968960    -0.15900
C447        C  0.34081819  0.26627770  0.86692108    -0.01500
C448        C  0.30692683  0.26529582  0.87914351    -0.09100
C449        C  0.22556299  0.20565736  0.85128861     0.65200
H450        H  0.29755485  0.21197185  0.83153466     0.10700
C451        C  0.37930305  0.29075383  0.87198660     0.63600
H452        H  0.30890957  0.28067438  0.89237930     0.08000
F453        F  0.14830173  0.33950814  0.88424876    -0.19400
F454        F  0.13733671  0.33268459  0.91451303    -0.15700
F455        F  0.10025700  0.29452274  0.89437046    -0.19100
F456        F  0.30575665  0.20505471  0.90931238    -0.22500
F457        F  0.27348631  0.15909523  0.89078080    -0.24000
F458        F  0.26144940  0.15854830  0.92110952    -0.18000
F459        F  0.37441421  0.31230906  0.88835531    -0.20500
F460        F  0.38789146  0.31966861  0.85835304    -0.21600
F461        F  0.41248811  0.26372322  0.87389945    -0.18800
F462        F  0.22917295  0.18566152  0.83447675    -0.18900
F463        F  0.19534775  0.23618089  0.84976287    -0.22700
F464        F  0.21312381  0.17633132  0.86412699    -0.24400
C465        C  0.79637358  0.80306855  0.02278234    -0.11200
C466        C  0.81440210  0.84299200  0.02334565     0.11400
C467        C  0.85398524  0.84942582  0.01552791    -0.03000
C468        C  0.87322766  0.81598091  0.00637220    -0.05700
C469        C  0.85413424  0.77674761  0.00464607    -0.16500
C470        C  0.81556057  0.76956293  0.01337951     0.02400
C471        C  0.78986951  0.87889347  0.03039830     0.12400
C472        C  0.87497663  0.89200348  0.01612717     0.63000
H473        H  0.90298054  0.82069187  0.99982769     0.12400
C474        C  0.79386496  0.72761808  0.01199232     0.55100
H475        H  0.76627710  0.79896142  0.02907539     0.08200
C476        C  0.76221039  0.90072742  0.01881875    -0.05600
C477        C  0.74618326  0.93922606  0.02482840    -0.06300
C478        C  0.75702957  0.95676858  0.04190375    -0.15900
C479        C  0.78252034  0.93322199  0.05406524    -0.01500
C480        C  0.79821740  0.89427732  0.04804282    -0.09100
C481        C  0.75041950  0.88384284  0.99999434     0.65200
H482        H  0.72561077  0.95648536  0.01586550     0.10700
C483        C  0.79454226  0.94927827  0.07295623     0.63600
H484        H  0.81902454  0.87639945  0.05667773     0.08000
F485        F  0.75523812  0.72846771  0.02023461    -0.19400
F486        F  0.81732991  0.69721473  0.02064302    -0.15700
F487        F  0.78860807  0.71689387  0.99372102    -0.19100
F488        F  0.88117383  0.90396787  0.03416573    -0.22500
F489        F  0.85057432  0.92162021  0.00746260    -0.24000
F490        F  0.91310430  0.89143397  0.00743665    -0.18000
F491        F  0.75940697  0.95558974  0.08348637    -0.20500
F492        F  0.81602009  0.98648986  0.07124768    -0.21600
F493        F  0.81965744  0.92120547  0.08224292    -0.18800
F494        F  0.72469029  0.91110462  0.99058205    -0.18900
F495        F  0.72984063  0.84623024  0.00201796    -0.22700
F496        F  0.78540890  0.87753169  0.98938285    -0.24400
C497        C  0.10098893  0.74715959  0.97853146    -0.11200
C498        C  0.10058302  0.78647933  0.98709772     0.11400
C499        C  0.06360654  0.81037845  0.98756648    -0.03000
C500        C  0.02699364  0.79210538  0.98096672    -0.05700
C501        C  0.02674932  0.75122994  0.97396651    -0.16500
C502        C  0.06425098  0.72872892  0.97215892     0.02400
C503        C  0.13741307  0.79929668  0.99778628     0.12400
C504        C  0.06275205  0.85436686  0.99554347     0.63000
H505        H  0.99785782  0.80877678  0.98206421     0.12400
C506        C  0.06485724  0.68472556  0.96436840     0.55100
H507        H  0.12981911  0.72982166  0.97809632     0.08200
C508        C  0.14284728  0.78548376  0.01611981    -0.05600
C509        C  0.17466462  0.80312272  0.02659487    -0.06300
C510        C  0.20148841  0.83315513  0.01924029    -0.15900
C511        C  0.19816493  0.84461978  0.00046490    -0.01500
C512        C  0.16576005  0.82736747  0.98998460    -0.09100
C513        C  0.11448342  0.75303207  0.02474946     0.65200
H514        H  0.17824658  0.79436196  0.04088956     0.10700
C515        C  0.22731455  0.87621547  0.99181340     0.63600
H516        H  0.16135517  0.83669672  0.97581263     0.08000
F517        F  0.10465275  0.66880633  0.96315836    -0.19400
F518        F  0.04790711  0.68490673  0.94693237    -0.15700
F519        F  0.04196953  0.65857215  0.97557501    -0.19100
F520        F  0.08910115  0.87981969  0.98559557    -0.22500
F521        F  0.07530079  0.85371504  0.01369818    -0.24000
F522        F  0.02353636  0.87182564  0.99489005    -0.18000
F523        F  0.21747046  0.88408913  0.97362670    -0.20500
F524        F  0.26737206  0.86096458  0.99234455    -0.21600
F525        F  0.22528158  0.91372447  0.00130543    -0.18800
F526        F  0.12521309  0.74446288  0.04277718    -0.18900
F527        F  0.11692968  0.71599137  0.01496979    -0.22700
F528        F  0.07408021  0.76729073  0.02463623    -0.24400
C529        C  0.77707934  0.66388118  0.90463991    -0.11200
C530        C  0.76432644  0.70315420  0.89810459     0.11400
C531        C  0.78068669  0.73997944  0.90608713    -0.03000
C532        C  0.81199027  0.73613831  0.91942916    -0.05700
C533        C  0.82479301  0.69686844  0.92603617    -0.16500
C534        C  0.80639353  0.66001317  0.91885900     0.02400
C535        C  0.73164192  0.70459128  0.88375068     0.12400
C536        C  0.76363765  0.78293552  0.90119754     0.63000
H537        H  0.82549022  0.76395471  0.92543907     0.12400
C538        C  0.81757639  0.61683291  0.92608583     0.55100
H539        H  0.76303716  0.63622738  0.89873523     0.08200
C540        C  0.74098114  0.70272238  0.86475390    -0.05600
C541        C  0.70822594  0.70461012  0.85205749    -0.06300
C542        C  0.66666892  0.70742890  0.85773559    -0.15900
C543        C  0.65738003  0.70738907  0.87681680    -0.01500
C544        C  0.69025377  0.70618571  0.88949309    -0.09100
C545        C  0.78523613  0.69807781  0.85794400     0.65200
H546        H  0.71493349  0.70390332  0.83747322     0.10700
C547        C  0.61315977  0.70705400  0.88386581     0.63600
H548        H  0.68397767  0.70643895  0.90412070     0.08000
F549        F  0.79868857  0.58531550  0.91610667    -0.19400
F550        F  0.80479805  0.61314422  0.94415733    -0.15700
F551        F  0.85989764  0.61080500  0.92506545    -0.19100
F552        F  0.72229737  0.78504423  0.90602066    -0.22500
F553        F  0.76741777  0.79012886  0.88255087    -0.24000
F554        F  0.78417049  0.81462642  0.91038410    -0.18000
F555        F  0.61140034  0.70164344  0.90272846    -0.20500
F556        F  0.59164336  0.67445015  0.87582174    -0.21600
F557        F  0.59403415  0.74465882  0.87972946    -0.18800
F558        F  0.78735213  0.69650001  0.83894075    -0.18900
F559        F  0.80221823  0.66146442  0.86474702    -0.22700
F560        F  0.80875817  0.73157699  0.86378098    -0.24400
C561        C  0.94981780  0.49936035  0.97316165    -0.11200
C562        C  0.98925248  0.49387423  0.96544653     0.11400
C563        C  0.01206506  0.52909739  0.95952266    -0.03000
C564        C  0.99422068  0.56898489  0.96137396    -0.05700
C565        C  0.95458775  0.57477135  0.96892834    -0.16500
C566        C  0.93198567  0.53944965  0.97515876     0.02400
C567        C  0.00525728  0.45068624  0.96292149     0.12400
C568        C  0.05451920  0.52451074  0.95072537     0.63000
H569        H  0.01095230  0.59613410  0.95650573     0.12400
C570        C  0.88881825  0.54365822  0.98319138     0.55100
H571        H  0.93292716  0.47174261  0.97739934     0.08200
C572        C  0.02490369  0.42845707  0.97724064    -0.05600
C573        C  0.04122513  0.38852857  0.97345391    -0.06300
C574        C  0.03710495  0.36950110  0.95607989    -0.15900
C575        C  0.01582819  0.39153239  0.94189416    -0.01500
C576        C  0.00068787  0.43203656  0.94564063    -0.09100
C577        C  0.02768579  0.44646468  0.99652794     0.65200
H578        H  0.05648541  0.37137745  0.98434271     0.10700
C579        C  0.00841665  0.37290805  0.92294929     0.63600
H580        H  0.98475879  0.44971280  0.93509011     0.08000
F581        F  0.89047395  0.56572836  0.99952375    -0.19400
F582        F  0.87125855  0.50501733  0.98683059    -0.15700
F583        F  0.86343555  0.56450446  0.97092217    -0.19100
F584        F  0.05076466  0.50486417  0.93388597    -0.22500
F585        F  0.08020952  0.50096194  0.96185932    -0.24000
F586        F  0.07320041  0.56296907  0.94791984    -0.18000
F587        F  0.98835517  0.40069752  0.91136327    -0.20500
F588        F  0.98386790  0.33764294  0.92445697    -0.21600
F589        F  0.04577986  0.36249786  0.91484208    -0.18800
F590        F  0.05007683  0.42073584  0.00818015    -0.18900
F591        F  0.98835380  0.45098654  0.00375652    -0.22700
F592        F  0.04675322  0.48514616  0.99612540    -0.24400
C593        C  0.04050258  0.50816181  0.57434033    -0.11200
C594        C  0.01509632  0.50786761  0.55881446     0.11400
C595        C  0.02864670  0.52705158  0.54236725    -0.03000
C596        C  0.06865144  0.54412475  0.54177283    -0.05700
C597        C  0.09515906  0.54281328  0.55706842    -0.16500
C598        C  0.08057523  0.52509878  0.57384224     0.02400
C599        C  0.97417556  0.48739165  0.56034374     0.12400
C600        C  0.00086802  0.52968909  0.52558773     0.63000
H601        H  0.07967829  0.55830513  0.52917522     0.12400
C602        C  0.10647364  0.52408327  0.59126530     0.55100
H603        H  0.02868084  0.49421082  0.58685453     0.08200
C604        C  0.96959235  0.44336419  0.55922382    -0.05600
C605        C  0.92967722  0.42626587  0.56054932    -0.06300
C606        C  0.89488621  0.45164013  0.56361320    -0.15900
C607        C  0.89967441  0.49577665  0.56501614    -0.01500
C608        C  0.93952798  0.51281275  0.56337342    -0.09100
C609        C  0.00672936  0.41460597  0.55690718     0.65200
H610        H  0.92538785  0.39269693  0.55962917     0.10700
C611        C  0.86303914  0.52507229  0.56767329     0.63600
H612        H  0.94414006  0.54630083  0.56452641     0.08000
F613        F  0.08418811  0.50952864  0.60621876    -0.19400
F614        F  0.12002017  0.56403532  0.59544128    -0.15700
F615        F  0.14003394  0.49767187  0.58887964    -0.19100
F616        F  0.96743616  0.55538461  0.52937023    -0.22500
F617        F  0.98670166  0.49028512  0.52092065    -0.24000
F618        F  0.02146651  0.54598396  0.51050847    -0.18000
F619        F  0.84611037  0.51931081  0.58494428    -0.20500
F620        F  0.83347850  0.51712299  0.55445797    -0.21600
F621        F  0.87431252  0.56674694  0.56612484    -0.18800
F622        F  0.99508301  0.37313593  0.55499268    -0.18900
F623        F  0.03194486  0.41750769  0.57217058    -0.22700
F624        F  0.02898975  0.42587806  0.54144953    -0.24400
C625        C  0.59806400  0.14836533  0.79919880    -0.11200
C626        C  0.62878371  0.17686343  0.79388760     0.11400
C627        C  0.62268996  0.22020568  0.79708606    -0.03000
C628        C  0.58418843  0.23381351  0.80397000    -0.05700
C629        C  0.55209735  0.20550983  0.80784265    -0.16500
C630        C  0.55977196  0.16189215  0.80633501     0.02400
C631        C  0.66175262  0.16136542  0.78132675     0.12400
C632        C  0.65607767  0.25203134  0.79253081     0.63000
H633        H  0.57799955  0.26702538  0.80539257     0.12400
C634        C  0.52672389  0.12985270  0.81084291     0.55100
H635        H  0.60314464  0.11545073  0.79636317     0.08200
C636        C  0.69579514  0.13673792  0.78715836    -0.05600
C637        C  0.72267039  0.12004677  0.77371094    -0.06300
C638        C  0.71615731  0.12703279  0.75485881    -0.15900
C639        C  0.68309514  0.15323122  0.74916955    -0.01500
C640        C  0.65598861  0.16909087  0.76254496    -0.09100
C641        C  0.70355999  0.12792437  0.80736419     0.65200
H642        H  0.74829428  0.10023532  0.77779600     0.10700
C643        C  0.67672980  0.16546340  0.72917251     0.63600
H644        H  0.62930806  0.18737509  0.75839549     0.08000
F645        F  0.54046456  0.08924069  0.80801671    -0.19400
F646        F  0.49256836  0.13632918  0.79980940    -0.15700
F647        F  0.51535331  0.13359631  0.82909943    -0.19100
F648        F  0.66221614  0.25408518  0.77375606    -0.22500
F649        F  0.69278142  0.24063732  0.80087641    -0.24000
F650        F  0.64560212  0.29174112  0.79863837    -0.18000
F651        F  0.66283211  0.13142895  0.71922188    -0.20500
F652        F  0.71358119  0.17962403  0.72175841    -0.21600
F653        F  0.64780186  0.19725904  0.72737432    -0.18800
F654        F  0.73946239  0.10494783  0.80999158    -0.18900
F655        F  0.67105923  0.10540392  0.81470007    -0.22700
F656        F  0.70742110  0.16520596  0.81683906    -0.24400
C657        C  0.69249166  0.80640676  0.75770937    -0.11200
C658        C  0.68056298  0.84857472  0.75840702     0.11400
C659        C  0.64726521  0.86111524  0.76981094    -0.03000
C660        C  0.62760026  0.83071173  0.78063412    -0.05700
C661        C  0.64020122  0.78854760  0.78044498    -0.16500
C662        C  0.67323031  0.77596863  0.76876500     0.02400
C663        C  0.70499096  0.87966637  0.74794894     0.12400
C664        C  0.63287978  0.90649605  0.77069246     0.63000
H665        H  0.60205802  0.83979248  0.78943792     0.12400
C666        C  0.68927463  0.73123136  0.76840152     0.55100
H667        H  0.71780575  0.79778538  0.74868906     0.08200
C668        C  0.74254264  0.89562244  0.75490993    -0.05600
C669        C  0.76082050  0.92963683  0.74589212    -0.06300
C670        C  0.74226320  0.94888484  0.73058318    -0.15900
C671        C  0.70609246  0.93091085  0.72286158    -0.01500
C672        C  0.68844941  0.89589936  0.73163627    -0.09100
C673        C  0.76233377  0.87800353  0.77222348     0.65200
H674        H  0.78913644  0.94270780  0.75132454     0.10700
C675        C  0.68493518  0.94938441  0.70610172     0.63600
H676        H  0.66017669  0.88222532  0.72643618     0.08000
F677        F  0.72454241  0.72730332  0.75771003    -0.19400
F678        F  0.65944517  0.70506615  0.76116299    -0.15700
F679        F  0.69911351  0.71844051  0.78603656    -0.19100
F680        F  0.61745352  0.91859062  0.75379874    -0.22500
F681        F  0.66555081  0.93225455  0.77533403    -0.24000
F682        F  0.60194576  0.91228606  0.78363869    -0.18000
F683        F  0.71182628  0.94874998  0.69129738    -0.20500
F684        F  0.67283228  0.99016054  0.70971656    -0.21600
F685        F  0.65000228  0.92701795  0.70122486    -0.18800
F686        F  0.79785158  0.89952676  0.77700526    -0.18900
F687        F  0.77302905  0.83653241  0.76948820    -0.22700
F688        F  0.73493762  0.88075761  0.78679292    -0.24400
C689        C  0.77810022  0.17935085  0.64503833    -0.11200
C690        C  0.78299828  0.22064335  0.65124219     0.11400
C691        C  0.78819423  0.22865093  0.67020783    -0.03000
C692        C  0.78805306  0.19466363  0.68240474    -0.05700
C693        C  0.78420083  0.15311564  0.67625511    -0.16500
C694        C  0.77991562  0.14506083  0.65717735     0.02400
C695        C  0.78387567  0.25480526  0.63745107     0.12400
C696        C  0.79480458  0.27273069  0.67752615     0.63000
H697        H  0.79125807  0.20041770  0.69699934     0.12400
C698        C  0.77954430  0.10084521  0.64948809     0.55100
H699        H  0.77381481  0.17421056  0.63045429     0.08200
C700        C  0.81875670  0.26170748  0.62610714    -0.05600
C701        C  0.81718060  0.29429386  0.61316472    -0.06300
C702        C  0.78209926  0.32007035  0.61123941    -0.15900
C703        C  0.74757008  0.31378603  0.62303908    -0.01500
C704        C  0.74899939  0.28064834  0.63578552    -0.09100
C705        C  0.85714166  0.23422699  0.62735978     0.65200
H706        H  0.84331206  0.29930063  0.60410304     0.10700
C707        C  0.70897692  0.34091211  0.62201939     0.63600
H708        H  0.72266840  0.27432076  0.64456705     0.08000
F709        F  0.78043165  0.10063446  0.63045722    -0.19400
F710        F  0.74412641  0.08028338  0.65507792    -0.15700
F711        F  0.81400683  0.07920722  0.65561648    -0.19100
F712        F  0.75987312  0.29678256  0.67455092    -0.22500
F713        F  0.82813057  0.29098079  0.66872250    -0.24000
F714        F  0.80280941  0.27284375  0.69621806    -0.18000
F715        F  0.67897260  0.32821537  0.63441317    -0.20500
F716        F  0.69215590  0.33873308  0.60459204    -0.21600
F717        F  0.71892801  0.38198329  0.62607969    -0.18800
F718        F  0.88941799  0.24996448  0.61693727    -0.18900
F719        F  0.84825945  0.19448321  0.62098394    -0.22700
F720        F  0.87042307  0.23160126  0.64537891    -0.24400
C721        C  0.33725588  0.15554987  0.74589871    -0.11200
C722        C  0.35022545  0.11376378  0.74753175     0.11400
C723        C  0.38402625  0.10366450  0.75900518    -0.03000
C724        C  0.40172347  0.13553154  0.76961384    -0.05700
C725        C  0.38658309  0.17685751  0.76934597    -0.16500
C726        C  0.35476359  0.18760891  0.75671808     0.02400
C727        C  0.32551398  0.08036544  0.73864889     0.12400
C728        C  0.40032650  0.05907256  0.76060306     0.63000
H729        H  0.42684435  0.12785509  0.77881804     0.12400
C730        C  0.33816568  0.23194910  0.75504593     0.55100
H731        H  0.31189704  0.16240058  0.73666610     0.08200
C732        C  0.28956340  0.06446999  0.74719271    -0.05600
C733        C  0.27116304  0.02854304  0.73983381    -0.06300
C734        C  0.28740166  0.00778418  0.72431843    -0.15900
C735        C  0.32198843  0.02546407  0.71505876    -0.01500
C736        C  0.34027413  0.06186519  0.72242428    -0.09100
C737        C  0.27110613  0.08486995  0.76425567     0.65200
H738        H  0.24416730  0.01579812  0.74660496     0.10700
C739        C  0.34028042  0.00600503  0.69782392     0.63600
H740        H  0.36746106  0.07527811  0.71603524     0.08000
F741        F  0.32247892  0.24513022  0.77177959    -0.19400
F742        F  0.30672030  0.23480488  0.74220329    -0.15700
F743        F  0.36960793  0.25845363  0.74955412    -0.19100
F744        F  0.41422804  0.04537180  0.74365896    -0.22500
F745        F  0.36928135  0.03279730  0.76671170    -0.24000
F746        F  0.43298473  0.05616068  0.77282564    -0.18000
F747        F  0.37198500  0.03003009  0.69060396    -0.20500
F748        F  0.31005194  0.00247833  0.68449085    -0.21600
F749        F  0.35623633  0.96683832  0.70185725    -0.18800
F750        F  0.23698630  0.06327125  0.77075108    -0.18900
F751        F  0.25857299  0.12521568  0.76016036    -0.22700
F752        F  0.30012006  0.08610592  0.77817622    -0.24400
C753        C  0.39147026  0.76083266  0.80211820    -0.11200
C754        C  0.39345008  0.79399724  0.78951581     0.11400
C755        C  0.43131772  0.81505995  0.78645551    -0.03000
C756        C  0.46717566  0.79923905  0.79477826    -0.05700
C757        C  0.46578167  0.76421510  0.80632895    -0.16500
C758        C  0.42744137  0.74545311  0.81067811     0.02400
C759        C  0.35684412  0.80351654  0.77811770     0.12400
C760        C  0.43387276  0.85351506  0.77416722     0.63000
H761        H  0.49697975  0.81316023  0.79180895     0.12400
C762        C  0.42514025  0.70814750  0.82350509     0.55100
H763        H  0.36194372  0.74575098  0.80441326     0.08200
C764        C  0.35055901  0.78289950  0.76111398    -0.05600
C765        C  0.32042028  0.79869929  0.74912274    -0.06300
C766        C  0.29670516  0.83393800  0.75371302    -0.15900
C767        C  0.30144165  0.85321999  0.77113092    -0.01500
C768        C  0.33137964  0.83712074  0.78323286    -0.09100
C769        C  0.37663478  0.74537194  0.75540743     0.65200
H770        H  0.31610414  0.78457972  0.73572436     0.10700
C771        C  0.27724243  0.89232206  0.77635199     0.63600
H772        H  0.33690901  0.85212572  0.79634763     0.08000
F773        F  0.44769155  0.67518757  0.81625448    -0.19400
F774        F  0.38482436  0.69486561  0.82612411    -0.15700
F775        F  0.44131092  0.71892049  0.84043449    -0.19100
F776        F  0.41050841  0.88550198  0.78174384    -0.22500
F777        F  0.41903722  0.84459929  0.75679688    -0.24000
F778        F  0.47410832  0.86762050  0.77229678    -0.18000
F779        F  0.23545911  0.88333873  0.77697433    -0.20500
F780        F  0.28422996  0.92352730  0.76352766    -0.21600
F781        F  0.28872822  0.90753593  0.79340918    -0.18800
F782        F  0.36589591  0.73076151  0.73814866    -0.18900
F783        F  0.37104423  0.71315462  0.76784505    -0.22700
F784        F  0.41802283  0.75608015  0.75493635    -0.24400
C785        C  0.19709549  0.74036125  0.60676618    -0.11200
C786        C  0.22491780  0.73287904  0.62110019     0.11400
C787        C  0.24988083  0.69647725  0.62087765    -0.03000
C788        C  0.24663297  0.66887604  0.60591454    -0.05700
C789        C  0.21856349  0.67587763  0.59147337    -0.16500
C790        C  0.19323293  0.71253803  0.59185558     0.02400
C791        C  0.22500074  0.76221243  0.63688744     0.12400
C792        C  0.27894459  0.68622302  0.63665621     0.63000
H793        H  0.26569017  0.64095926  0.60561716     0.12400
C794        C  0.16159890  0.72236061  0.57700916     0.55100
H795        H  0.17787773  0.76814117  0.60757620     0.08200
C796        C  0.24712553  0.80029953  0.63664929    -0.05600
C797        C  0.24661138  0.82552622  0.65249290    -0.06300
C798        C  0.22486356  0.81385633  0.66847630    -0.15900
C799        C  0.20185368  0.77578743  0.66842582    -0.01500
C800        C  0.20206706  0.75106806  0.65243237    -0.09100
C801        C  0.27118655  0.81412759  0.61976125     0.65200
H802        H  0.26366922  0.85464582  0.65249958     0.10700
C803        C  0.17727080  0.76055852  0.68496021     0.63600
H804        H  0.18480786  0.72205858  0.65195912     0.08000
F805        F  0.18140462  0.72826961  0.56034371    -0.08200
F806        F  0.13935508  0.75846232  0.58084062    -0.15700
F807        F  0.13362332  0.68980955  0.57559456    -0.19100
F808        F  0.25622958  0.67825068  0.65237649    -0.22500
F809        F  0.30520674  0.71948227  0.63991043    -0.24000
F810        F  0.30298829  0.65126568  0.63296369    -0.18000
F811        F  0.14794916  0.79018569  0.68984632    -0.20500
F812        F  0.20368393  0.75321894  0.69954684    -0.21600
F813        F  0.15662132  0.72350069  0.68136751    -0.18800
F814        F  0.29200100  0.85136063  0.62273147    -0.18900
F815        F  0.24438636  0.82004448  0.60521114    -0.22700
F816        F  0.30003186  0.78395010  0.61502973    -0.24400
C817        C  0.04900947  0.96017890  0.73031093    -0.11200
C818        C  0.03352016  0.97666809  0.71388484     0.11400
C819        C  0.05756926  0.97531380  0.69768813    -0.03000
C820        C  0.09607478  0.95517258  0.69829494    -0.05700
C821        C  0.11150518  0.93753303  0.71461039    -0.16500
C822        C  0.08786919  0.94050333  0.73106802     0.02400
C823        C  0.99108395  0.99360542  0.71395218     0.12400
C824        C  0.04285822  0.99554817  0.67995245     0.63000
H825        H  0.11468246  0.95339503  0.68592995     0.12400
C826        C  0.10341200  0.92405431  0.74941737     0.55100
H827        H  0.02990226  0.96245454  0.74251919     0.08200
C828        C  0.95651133  0.96683877  0.71244682    -0.05600
C829        C  0.91691452  0.98475886  0.71260757    -0.06300
C830        C  0.91118828  0.02810070  0.71449429    -0.15900
C831        C  0.94582814  0.05497815  0.71567619    -0.01500
C832        C  0.98554600  0.03699075  0.71562622    -0.09100
C833        C  0.96150013  0.91957506  0.71094895     0.65200
H834        H  0.88989624  0.96487116  0.71169921     0.10700
C835        C  0.94096196  0.10226991  0.71609716     0.63600
H836        H  0.01269731  0.05660279  0.71678883     0.08000
F837        F  0.07640005  0.93332222  0.76365422    -0.19400
F838        F  0.14113365  0.94207478  0.75355992    -0.15700
F839        F  0.10763902  0.88097531  0.74863932    -0.19100
F840        F  0.03862296  0.03824560  0.68251636    -0.22500
F841        F  0.00515318  0.97904971  0.67478912    -0.24000
F842        F  0.07051352  0.98918666  0.66566024    -0.18000
F843        F  0.92153987  0.11448451  0.73216806    -0.20500
F844        F  0.91760735  0.11514991  0.70120525    -0.21600
F845        F  0.97878613  0.12241297  0.71521214    -0.18800
F846        F  0.92394049  0.89974328  0.70837106    -0.18900
F847        F  0.97893594  0.90404886  0.72689307    -0.22700
F848        F  0.98678158  0.90958947  0.69623129    -0.24400
C849        C  0.67259264  0.56304627  0.54800568    -0.11200
C850        C  0.69218783  0.58097713  0.53272375     0.11400
C851        C  0.73092247  0.56562717  0.52676984    -0.03000
C852        C  0.74673274  0.52949408  0.53513308    -0.05700
C853        C  0.72611251  0.50963032  0.54975616    -0.16500
C854        C  0.68918456  0.52756694  0.55686715     0.02400
C855        C  0.66979361  0.61305357  0.52199404     0.12400
C856        C  0.75524564  0.58728518  0.51159960     0.63000
H857        H  0.77534808  0.51610110  0.53006147     0.12400
C858        C  0.66658152  0.50878478  0.57318602     0.55100
H859        H  0.64335985  0.57625104  0.55246960     0.08200
C860        C  0.64340922  0.60135890  0.50744456    -0.05600
C861        C  0.62635482  0.63292992  0.49643829    -0.06300
C862        C  0.63444548  0.67564169  0.49957092    -0.15900
C863        C  0.65921182  0.68734743  0.51487707    -0.01500
C864        C  0.67656680  0.65545751  0.52584602    -0.09100
C865        C  0.63362636  0.55561648  0.50347389     0.65200
H866        H  0.60664153  0.62415946  0.48507397     0.10700
C867        C  0.66817762  0.73279748  0.51952574     0.63600
H868        H  0.69646663  0.66321421  0.53730099     0.08000
F869        F  0.65674773  0.46744601  0.56959786    -0.19400
F870        F  0.63018265  0.53000154  0.57704981    -0.15700
F871        F  0.69145242  0.51090884  0.58859983    -0.19100
F872        F  0.76363263  0.62803824  0.51678949    -0.22500
F873        F  0.73282246  0.58783903  0.49545067    -0.24000
F874        F  0.79255542  0.56738861  0.50812480    -0.18000
F875        F  0.63157426  0.75367058  0.52328115    -0.20500
F876        F  0.68812790  0.75181421  0.50492075    -0.21600
F877        F  0.69330735  0.73650802  0.53482364    -0.18800
F878        F  0.60666920  0.55128801  0.48884160    -0.18900
F879        F  0.61542202  0.53753803  0.51872423    -0.22700
F880        F  0.66944147  0.53392073  0.49923336    -0.24400
C881        C  0.31906060  0.65092735  0.48242819    -0.11200
C882        C  0.34798610  0.67891365  0.48973028     0.11400
C883        C  0.34227931  0.69555681  0.50758785    -0.03000
C884        C  0.30925852  0.68066607  0.51820715    -0.05700
C885        C  0.28243777  0.64976194  0.51156451    -0.16500
C886        C  0.28646354  0.63526702  0.49323633     0.02400
C887        C  0.38671689  0.68635208  0.47945933     0.12400
C888        C  0.37178700  0.72772756  0.51561337     0.63000
H889        H  0.30530749  0.69151734  0.53221347     0.12400
C890        C  0.25890850  0.60099435  0.48565713     0.55100
H891        H  0.32409512  0.63919138  0.46863490     0.08200
C892        C  0.42108340  0.65914596  0.48151671    -0.05600
C893        C  0.45955046  0.67210170  0.47466993    -0.06300
C894        C  0.46397972  0.71044715  0.46556384    -0.15900
C895        C  0.42893803  0.73566511  0.46196241    -0.01500
C896        C  0.39041893  0.72304414  0.46902309    -0.09100
C897        C  0.41740284  0.61746766  0.49150549     0.65200
H898        H  0.48696795  0.65336319  0.47716057     0.10700
C899        C  0.43287953  0.77662230  0.45157782     0.63600
H900        H  0.36339717  0.74279753  0.46735680     0.08000
F901        F  0.26889913  0.59102797  0.46766391    -0.19400
F902        F  0.21809475  0.61397667  0.48602484    -0.15700
F903        F  0.26326829  0.56514498  0.49616327    -0.19100
F904        F  0.37101746  0.76362267  0.50500231    -0.22500
F905        F  0.41163791  0.71193496  0.51594763    -0.24000
F906        F  0.36106604  0.73869212  0.53341723    -0.18000
F907        F  0.39492852  0.79609859  0.44928478    -0.20500
F908        F  0.44949452  0.76901572  0.43436647    -0.21600
F909        F  0.45851596  0.80361907  0.46107363    -0.18800
F910        F  0.45458903  0.59586543  0.49174381    -0.18900
F911        F  0.38858838  0.59256734  0.48276224    -0.22700
F912        F  0.40508863  0.62388210  0.50949774    -0.24400
C913        C  0.33318756  0.42707915  0.53779183    -0.11200
C914        C  0.31973049  0.40823104  0.52147148     0.11400
C915        C  0.28322510  0.42264907  0.51287490    -0.03000
C916        C  0.26224645  0.45699785  0.52053917    -0.05700
C917        C  0.27614064  0.47716196  0.53658638    -0.16500
C918        C  0.31204617  0.46151998  0.54560033     0.02400
C919        C  0.34435331  0.37345485  0.51340979     0.12400
C920        C  0.26636746  0.40162267  0.49569374     0.63000
H921        H  0.23454959  0.46846674  0.51387191     0.12400
C922        C  0.32858078  0.48106168  0.56313159     0.55100
H923        H  0.36086020  0.41478658  0.54421287     0.08200
C924        C  0.37764580  0.38099844  0.50125730    -0.05600
C925        C  0.39513366  0.34685772  0.49177492    -0.06300
C926        C  0.38102005  0.30552488  0.49435946    -0.15900
C927        C  0.34969805  0.29789397  0.50770474    -0.01500
C928        C  0.33189098  0.33228529  0.51696580    -0.09100
C929        C  0.39427870  0.42498440  0.49826157     0.65200
H930        H  0.41990211  0.35242633  0.48205158     0.10700
C931        C  0.33412209  0.25413723  0.51194558     0.63600
H932        H  0.30691712  0.32756107  0.52668192     0.08000
F933        F  0.33848898  0.52260223  0.56004601    -0.19400
F934        F  0.36390940  0.46096790  0.56931147    -0.15700
F935        F  0.29905842  0.47836322  0.57686586    -0.19100
F936        F  0.25515657  0.36090448  0.49974185    -0.22500
F937        F  0.29605541  0.40117891  0.48199590    -0.24000
F938        F  0.23185139  0.42215329  0.48891367    -0.18000
F939        F  0.36623129  0.22993285  0.51868620    -0.20500
F940        F  0.31834214  0.23604341  0.49618033    -0.21600
F941        F  0.30303157  0.25446384  0.52505755    -0.18800
F942        F  0.42671333  0.42549400  0.48581005    -0.18900
F943        F  0.40857110  0.44091259  0.51473286    -0.22700
F944        F  0.36340397  0.45089006  0.49162307    -0.24400
C945        C  0.63926525  0.29621315  0.52313486    -0.11200
C946        C  0.65552986  0.28417532  0.50610449     0.11400
C947        C  0.69784198  0.29072266  0.50225331    -0.03000
C948        C  0.72249489  0.31029675  0.51568197    -0.05700
C949        C  0.70593660  0.32403109  0.53258427    -0.16500
C950        C  0.66358819  0.31557179  0.53663405     0.02400
C951        C  0.62584360  0.26744288  0.49245414     0.12400
C952        C  0.71642522  0.27850014  0.48383889     0.63000
H953        H  0.75470873  0.31651620  0.51269888     0.12400
C954        C  0.64337943  0.32668820  0.55491418     0.55100
H955        H  0.60660767  0.29103057  0.52557122     0.08200
C956        C  0.60942653  0.22659564  0.49409305    -0.05600
C957        C  0.57388648  0.21649637  0.48398705    -0.06300
C958        C  0.55379096  0.24611003  0.47281490    -0.15900
C959        C  0.57214563  0.28582639  0.47000937    -0.01500
C960        C  0.60821023  0.29577980  0.47993409    -0.09100
C961        C  0.62742833  0.19475922  0.50742809     0.65200
H962        H  0.55964532  0.18609264  0.48580785     0.10700
C963        C  0.55228109  0.31851446  0.45772589     0.63600
H964        H  0.62119057  0.32695415  0.47905930     0.08000
F965        F  0.60351483  0.31119058  0.55626445    -0.19400
F966        F  0.64106003  0.36972348  0.55686709    -0.15700
F967        F  0.66602628  0.30959830  0.56918316    -0.19100
F968        F  0.69936225  0.30294136  0.47012398    -0.22500
F969        F  0.70844086  0.23687934  0.48009448    -0.24000
F970        F  0.75888454  0.28398335  0.48354763    -0.18000
F971        F  0.51325537  0.32838004  0.46427361    -0.20500
F972        F  0.54917894  0.30308274  0.44002716    -0.21600
F973        F  0.57524133  0.35503721  0.45705062    -0.18800
F974        F  0.61007089  0.15552126  0.50508432    -0.18900
F975        F  0.62004250  0.20738226  0.52530557    -0.22700
F976        F  0.66957729  0.19094057  0.50476695    -0.24400
C977        C  0.51981357  0.03648261  0.45418827    -0.11200
C978        C  0.49880221  0.00771498  0.46524234     0.11400
C979        C  0.46434799  0.02116688  0.47575514    -0.03000
C980        C  0.45032647  0.06279478  0.47376626    -0.05700
C981        C  0.47008472  0.09127176  0.46190080    -0.16500
C982        C  0.50613069  0.07804191  0.45216363     0.02400
C983        C  0.51361411  0.96354909  0.46504245     0.12400
C984        C  0.44318038  0.99202948  0.48929778     0.63000
H985        H  0.42378734  0.07347182  0.48158148     0.12400
C986        C  0.53084259  0.10728201  0.43985049     0.55100
H987        H  0.54688947  0.02556761  0.44679796     0.08200
C988        C  0.50579206  0.93672414  0.44996031    -0.05600
C989        C  0.52250299  0.89606591  0.45016503    -0.06300
C990        C  0.54638274  0.88104427  0.46493196    -0.15900
C991        C  0.55396185  0.90807111  0.48013538    -0.01500
C992        C  0.53784412  0.94917151  0.47969923    -0.09100
C993        C  0.47943019  0.95074956  0.43377954     0.65200
H994        H  0.51660457  0.87546171  0.43865923     0.10700
C995        C  0.57868097  0.89415286  0.49679926     0.63600
H996        H  0.54409243  0.97070657  0.49084111     0.08000
F997        F  0.50736243  0.11859517  0.42476917    -0.19400
F998        F  0.56671798  0.08861538  0.43336082    -0.15700
F999        F  0.54220200  0.14265558  0.44957729    -0.19100
F1000       F  0.46998228  0.98280981  0.50352509    -0.22500
F1001       F  0.43181746  0.95525309  0.48066001    -0.24000
F1002       F  0.40794804  0.00997750  0.49679094    -0.18000
F1003       F  0.61787764  0.88166569  0.49141660    -0.20500
F1004       F  0.55866914  0.86133210  0.50543942    -0.21600
F1005       F  0.58311308  0.92602648  0.50954273    -0.18800
F1006       F  0.47347906  0.91879755  0.42119433    -0.18900
F1007       F  0.49834070  0.98348985  0.42466014    -0.22700
F1008       F  0.44103071  0.96367468  0.43999920    -0.24400
C1009       C  0.24295786  0.38022622  0.23500288    -0.11200
C1010       C  0.20068396  0.38019355  0.23935140     0.11400
C1011       C  0.17532356  0.41412089  0.23372448    -0.03000
C1012       C  0.19344426  0.44721940  0.22383390    -0.05700
C1013       C  0.23623492  0.44886986  0.22088976    -0.16500
C1014       C  0.26143953  0.41452659  0.22607737     0.02400
C1015       C  0.18502560  0.34699560  0.25181426     0.12400
C1016       C  0.13011402  0.41693179  0.23936514     0.63000
H1017       H  0.17489035  0.47392462  0.21978425     0.12400
C1018       C  0.30766000  0.41437913  0.22231073     0.55100
H1019       H  0.26178294  0.35416995  0.23961650     0.08200
C1020       C  0.17065504  0.30788697  0.24538133    -0.05600
C1021       C  0.15400181  0.27934488  0.25815815    -0.06300
C1022       C  0.15226501  0.28846757  0.27705693    -0.15900
C1023       C  0.16950374  0.32667323  0.28355946    -0.01500
C1024       C  0.18541098  0.35529563  0.27070106    -0.09100
C1025       C  0.17360716  0.29622202  0.22520007     0.65200
H1026       H  0.14165037  0.24978320  0.25340571     0.10700
C1027       C  0.17187971  0.33743723  0.30389419     0.63600
H1028       H  0.19773126  0.38506084  0.27525578     0.08000
F1029       F  0.32546993  0.37602784  0.22640805    -0.19400
F1030       F  0.32697723  0.44452363  0.23286018    -0.15700
F1031       F  0.31473177  0.42270100  0.20391778    -0.19100
F1032       F  0.12725248  0.42057581  0.25825988    -0.22500
F1033       F  0.10915662  0.38146618  0.23384681    -0.24000
F1034       F  0.11065149  0.45132810  0.23162401    -0.18000
F1035       F  0.18860021  0.30416709  0.31357348    -0.20500
F1036       F  0.13278763  0.34647400  0.31056517    -0.21600
F1037       F  0.19663696  0.37203219  0.30704786    -0.18800
F1038       F  0.15693466  0.25710204  0.22177095    -0.18900
F1039       F  0.21466949  0.29550139  0.21988061    -0.22700
F1040       F  0.15261080  0.32515485  0.21459030    -0.24400
C1041       C  0.92940159  0.30553282  0.28637271    -0.11200
C1042       C  0.90553732  0.27684543  0.27634407     0.11400
C1043       C  0.91746589  0.23416184  0.27581169    -0.03000
C1044       C  0.95389076  0.22200111  0.28488511    -0.05700
C1045       C  0.97834081  0.25076541  0.29460580    -0.16500
C1046       C  0.96564391  0.29319361  0.29568189     0.02400
C1047       C  0.87135231  0.29352159  0.26478397     0.12400
C1048       C  0.89283107  0.20174725  0.26517960     0.63000
H1049       H  0.96448109  0.18989525  0.28382707     0.12400
C1050       C  0.99151078  0.32575870  0.30552987     0.55100
H1051       H  0.92023231  0.33817727  0.28619281     0.08200
C1052       C  0.83309414  0.30720509  0.27218873    -0.05600
C1053       C  0.80398033  0.32606155  0.26035952    -0.06300
C1054       C  0.81221563  0.33177819  0.24154838    -0.15900
C1055       C  0.84973271  0.31582273  0.23402305    -0.01500
C1056       C  0.87889472  0.29772036  0.24592230    -0.09100
C1057       C  0.82335906  0.30240022  0.29249594     0.65200
H1058       H  0.77511266  0.33791871  0.26588361     0.10700
C1059       C  0.85924400  0.31722748  0.21354102     0.63600
H1060       H  0.90856892  0.28745076  0.24062238     0.08000
F1061       F  0.97417561  0.36537183  0.30432735    -0.19400
F1062       F  0.03060160  0.32722122  0.29779321    -0.15700
F1063       F  0.99469264  0.31558418  0.32393819    -0.19100
F1064       F  0.89738700  0.20835401  0.24651804    -0.22500
F1065       F  0.85139573  0.20450633  0.26975028    -0.24000
F1066       F  0.90598694  0.16137503  0.26903653    -0.18000
F1067       F  0.86782013  0.35787200  0.20823174    -0.20500
F1068       F  0.82584962  0.30227447  0.20366231    -0.21600
F1069       F  0.89320222  0.29270912  0.20907200    -0.18800
F1070       F  0.78310018  0.31416895  0.29651755    -0.18900
F1071       F  0.84959152  0.32720509  0.30274791    -0.22700
F1072       F  0.82838091  0.26106506  0.29771506    -0.24400
C1073       C  0.25297346  0.19202938  0.36311801    -0.11200
C1074       C  0.24384380  0.21122830  0.37993065     0.11400
C1075       C  0.20454406  0.22992198  0.38256208    -0.03000
C1076       C  0.17463971  0.22633257  0.36853360    -0.05700
C1077       C  0.18321985  0.20628367  0.35167920    -0.16500
C1078       C  0.22379793  0.18958955  0.34877570     0.02400
C1079       C  0.27708541  0.21239018  0.39413493     0.12400
C1080       C  0.19466228  0.25449396  0.39990890     0.63000
H1081       H  0.14428072  0.23992117  0.37058920     0.12400
C1082       C  0.23736079  0.17012276  0.33064427     0.55100
H1083       H  0.28373546  0.17912967  0.36132961     0.08200
C1084       C  0.28455500  0.17825750  0.40611523    -0.05600
C1085       C  0.31760974  0.18084143  0.41865546    -0.06300
C1086       C  0.34409285  0.21571410  0.41927578    -0.15900
C1087       C  0.33703137  0.24955594  0.40698697    -0.01500
C1088       C  0.30354839  0.24715217  0.39459548    -0.09100
C1089       C  0.25804323  0.13903129  0.40549300     0.65200
H1090       H  0.32338421  0.15511971  0.42801346     0.10700
C1091       C  0.36390562  0.28845987  0.40716810     0.63600
H1092       H  0.29781174  0.27239816  0.38498471     0.08000
F1093       F  0.21360956  0.13524439  0.32683766    -0.19400
F1094       F  0.27832879  0.15733331  0.33099048    -0.15700
F1095       F  0.23335710  0.19922753  0.31666670    -0.19100
F1096       F  0.22134649  0.28807294  0.40139191    -0.22500
F1097       F  0.19906737  0.22923806  0.41519689    -0.24000
F1098       F  0.15462282  0.26998568  0.39979111    -0.18000
F1099       F  0.40369211  0.27819783  0.40177177    -0.20500
F1100       F  0.36465300  0.30539188  0.42467110    -0.21600
F1101       F  0.34925481  0.31893538  0.39529339    -0.18800
F1102       F  0.27025580  0.10981824  0.41847247    -0.18900
F1103       F  0.26111457  0.12053457  0.38836758    -0.22700
F1104       F  0.21715660  0.14913818  0.40886506    -0.24400
C1105       C  0.10441552  0.67077803  0.29900743    -0.11200
C1106       C  0.10967503  0.67660518  0.28002059     0.11400
C1107       C  0.07986617  0.69934337  0.26994753    -0.03000
C1108       C  0.04638151  0.71698510  0.27940911    -0.05700
C1109       C  0.03995678  0.71063245  0.29836672    -0.16500
C1110       C  0.06954637  0.68691680  0.30843411     0.02400
C1111       C  0.14460000  0.65564769  0.27049400     0.12400
C1112       C  0.08188107  0.70285515  0.24908213     0.63000
H1113       H  0.02355023  0.73430230  0.27163362     0.12400
C1114       C  0.06452173  0.67810853  0.32880429     0.55100
H1115       H  0.12733589  0.65233077  0.30624649     0.08200
C1116       C  0.18305295  0.67561359  0.26751098    -0.05600
C1117       C  0.21222380  0.65614409  0.25583864    -0.06300
C1118       C  0.20355564  0.61785094  0.24716635    -0.15900
C1119       C  0.16597588  0.59676825  0.25119914    -0.01500
C1120       C  0.13721765  0.61613114  0.26292555    -0.09100
C1121       C  0.19278410  0.71728396  0.27656317     0.65200
H1122       H  0.24140095  0.67134745  0.25290078     0.10700
C1123       C  0.15650777  0.55353318  0.24357710     0.63600
H1124       H  0.10775212  0.60133773  0.26572215     0.08000
F1125       F  0.09836098  0.65699381  0.33593574    -0.19400
F1126       F  0.02998024  0.65349138  0.33165798    -0.15700
F1127       F  0.06025149  0.71537841  0.33831623    -0.19100
F1128       F  0.07664351  0.66367730  0.24135624    -0.22500
F1129       F  0.11958639  0.71876907  0.24356063    -0.24000
F1130       F  0.05130126  0.72892229  0.24221392    -0.18000
F1131       F  0.18885060  0.52667800  0.24762503    -0.20500
F1132       F  0.15097951  0.55547730  0.22476379    -0.21600
F1133       F  0.12081416  0.53690085  0.25112402    -0.18800
F1134       F  0.23166385  0.73165440  0.27173305    -0.18900
F1135       F  0.19148213  0.71271881  0.29544895    -0.22700
F1136       F  0.16414604  0.74727103  0.27141837    -0.24400
C1137       C  0.82714520  0.66259326  0.24861063    -0.11200
C1138       C  0.83423162  0.61956888  0.25099094     0.11400
C1139       C  0.86070208  0.60570356  0.26521264    -0.03000
C1140       C  0.87825872  0.63551592  0.27701114    -0.05700
C1141       C  0.87011844  0.67863670  0.27524097    -0.16500
C1142       C  0.84419643  0.69262316  0.26066344     0.02400
C1143       C  0.81141078  0.58890455  0.23945265     0.12400
C1144       C  0.86995489  0.55939564  0.26807758     0.63000
H1145       H  0.89852204  0.62503824  0.28791378     0.12400
C1146       C  0.83329448  0.73856326  0.25808156     0.55100
H1147       H  0.80709985  0.67229693  0.23748479     0.08200
C1148       C  0.77086589  0.57616240  0.24414084    -0.05600
C1149       C  0.75446908  0.54035940  0.23561679    -0.06300
C1150       C  0.77739525  0.51685455  0.22279173    -0.15900
C1151       C  0.81691075  0.53137367  0.21718407    -0.01500
C1152       C  0.83285570  0.56793155  0.22540289    -0.09100
C1153       C  0.74597969  0.59901206  0.25880665     0.65200
H1154       H  0.72411798  0.52925132  0.23957942     0.10700
C1155       C  0.84346319  0.50685867  0.20370205     0.63600
H1156       H  0.86357702  0.57879167  0.22190037     0.08000
F1157       F  0.80544490  0.74453562  0.24388754    -0.19400
F1158       F  0.86859186  0.76110530  0.25396759    -0.15700
F1159       F  0.81540813  0.75412675  0.27398175    -0.19100
F1160       F  0.89103351  0.54372386  0.25301892    -0.22500
F1161       F  0.83353190  0.53737396  0.27034363    -0.24000
F1162       F  0.89412880  0.55251934  0.28346661    -0.18000
F1163       F  0.88185585  0.52508182  0.20117758    -0.20500
F1164       F  0.82407066  0.50516725  0.18680023    -0.21600
F1165       F  0.84969905  0.46662307  0.21022993    -0.18800
F1166       F  0.70708860  0.58176267  0.26113448    -0.18900
F1167       F  0.74084007  0.64050748  0.25387716    -0.22700
F1168       F  0.76640704  0.59703103  0.27546618    -0.24400
C1169       C  0.76325491  0.75455004  0.36552989    -0.11200
C1170       C  0.77373801  0.73962021  0.38294300     0.11400
C1171       C  0.81416043  0.72446955  0.38625118    -0.03000
C1172       C  0.84392920  0.72767494  0.37212633    -0.05700
C1173       C  0.83414949  0.74464119  0.35478861    -0.16500
C1174       C  0.79248584  0.75737411  0.35127165     0.02400
C1175       C  0.74148036  0.74170697  0.39746568     0.12400
C1176       C  0.82543117  0.70457879  0.40452796     0.63000
H1177       H  0.87521510  0.71694233  0.37459217     0.12400
C1178       C  0.77809063  0.77397188  0.33272842     0.55100
H1179       H  0.73171149  0.76494154  0.36337991     0.08200
C1180       C  0.73237668  0.77964348  0.40672483    -0.05600
C1181       C  0.69951273  0.78041221  0.41937497    -0.06300
C1182       C  0.67527446  0.74486016  0.42282676    -0.15900
C1183       C  0.68515325  0.70650544  0.41391311    -0.01500
C1184       C  0.71797603  0.70584680  0.40114406    -0.09100
C1185       C  0.75677795  0.81937978  0.40300076     0.65200
H1186       H  0.69180658  0.80932667  0.42639460     0.10700
C1187       C  0.66238335  0.66614589  0.41827176     0.63600
H1188       H  0.72539782  0.67735088  0.39374826     0.08000
F1189       F  0.79745867  0.81157178  0.32891740    -0.19400
F1190       F  0.73585143  0.78122829  0.33235783    -0.15700
F1191       F  0.78693553  0.74505555  0.31909605    -0.19100
F1192       F  0.80294081  0.66819247  0.40687702    -0.22500
F1193       F  0.81655010  0.73174436  0.41880871    -0.24000
F1194       F  0.86703489  0.69445363  0.40542165    -0.18000
F1195       F  0.62185540  0.66893101  0.41238121    -0.20500
F1196       F  0.66312872  0.65896048  0.43702543    -0.21600
F1197       F  0.68036078  0.63191359  0.40968168    -0.18800
F1198       F  0.74551131  0.85151537  0.41478861    -0.18900
F1199       F  0.74976012  0.83271069  0.38520480    -0.22700
F1200       F  0.79858015  0.81190599  0.40529986    -0.24400
C1201       C  0.96575705  0.94841248  0.30075364    -0.11200
C1202       C  0.98762755  0.96288327  0.31606428     0.11400
C1203       C  0.98994931  0.93781323  0.33204336    -0.03000
C1204       C  0.97315713  0.89718721  0.33155193    -0.05700
C1205       C  0.95335778  0.88131851  0.31580040    -0.16500
C1206       C  0.94831734  0.90803057  0.30025335     0.02400
C1207       C  0.00720634  0.00490016  0.31498976     0.12400
C1208       C  0.01004665  0.95402604  0.34951011     0.63000
H1209       H  0.97590952  0.87723881  0.34351805     0.12400
C1210       C  0.92564578  0.89427953  0.28299069     0.55100
H1211       H  0.96330202  0.96899789  0.28897416     0.08200
C1212       C  0.04714295  0.01083468  0.30743024    -0.05600
C1213       C  0.06404138  0.05152005  0.30725068    -0.06300
C1214       C  0.04203045  0.08620499  0.31413057    -0.15900
C1215       C  0.00089950  0.08029383  0.32070798    -0.01500
C1216       C  0.98443482  0.03953198  0.32108559    -0.09100
C1217       C  0.07146322  0.97432911  0.29941794     0.65200
H1218       H  0.09483463  0.05650501  0.30181406     0.10700
C1219       C  0.97367529  0.11662743  0.32681725     0.63600
H1220       H  0.95348076  0.03416168  0.32628141     0.08000
F1221       F  0.92427051  0.92563806  0.26986451    -0.19400
F1222       F  0.88526577  0.88387370  0.28731858    -0.15700
F1223       F  0.94554851  0.86016467  0.27522627    -0.19100
F1224       F  0.98949298  0.98952976  0.35550247    -0.22500
F1225       F  0.05096678  0.96391656  0.34621929    -0.24000
F1226       F  0.00883453  0.92472352  0.36352326    -0.18000
F1227       F  0.97330350  0.14734655  0.31344713    -0.20500
F1228       F  0.98844628  0.13310861  0.34308856    -0.21600
F1229       F  0.93313414  0.10434383  0.32972392    -0.18800
F1230       F  0.10964075  0.98678366  0.29277848    -0.18900
F1231       F  0.04968701  0.95676009  0.28502983    -0.22700
F1232       F  0.07796064  0.94412826  0.31271009    -0.24400
loop_ 
_geom_bond_atom_site_label_1 
_geom_bond_atom_site_label_2 
_geom_bond_distance 
_geom_bond_site_symmetry_2 
_ccdc_geom_bond_type 
In1           O3   2.231       .  S
In1           O4   2.251       .  S
In1          O12   2.202       .  S
In1           O6   2.274       .  S
In1           O8   2.282       .  S
In1           O9   2.227       .  S
In1          O10   2.191       .  S
In1          O13   2.246       .  S
C2            O8   1.269   1_455  A
C2           O10   1.260   1_455  A
C2         C1109   1.493       .  S
O3           C11   1.263       .  A
O4           C11   1.263       .  A
C5           O12   1.257       .  A
C5            O6   1.270       .  A
C5         C1173   1.495       .  S
C7            O9   1.262       .  A
C7           O13   1.266       .  A
C7         C1205   1.494       .  S
C11        C1141   1.493       .  S
In14         O16   2.211       .  S
In14         O17   2.250       .  S
In14         O25   2.227       .  S
In14         O19   2.264       .  S
In14         O21   2.259       .  S
In14         O22   2.257       .  S
In14         O23   2.207       .  S
In14         O26   2.224       .  S
C15          O21   1.272       .  A
C15          O23   1.263       .  A
C15        C1045   1.483   1_455  S
O16          C24   1.262       .  A
O17          C24   1.271       .  A
C18          O25   1.262       .  A
C18          O19   1.271       .  A
C18        C1077   1.504       .  S
C20          O22   1.271       .  A
C20          O26   1.263       .  A
C20        C1214   1.491       .  S
C24        C1022   1.487       .  S
In27         O29   2.228       .  S
In27         O30   2.247       .  S
In27         O38   2.231       .  S
In27         O32   2.259       .  S
In27         O34   2.270       .  S
In27         O35   2.254       .  S
In27         O36   2.198       .  S
In27         O39   2.214       .  S
C28          O34   1.271       .  A
C28          O36   1.261       .  A
C28         C958   1.482       .  S
O29          C37   1.263       .  A
O30          C37   1.266       .  A
C31          O38   1.263       .  A
C31          O32   1.268       .  A
C31        C1086   1.493       .  S
C33          O35   1.269       .  A
C33          O39   1.262       .  A
C33         C981   1.491       .  S
C37         C926   1.493       .  S
In40         O42   2.212       .  S
In40         O43   2.247       .  S
In40         O51   2.235       .  S
In40         O45   2.246       .  S
In40         O47   2.260       .  S
In40         O48   2.245       .  S
In40         O49   2.209       .  S
In40         O52   2.233       .  S
C41          O47   1.264       .  A
C41          O49   1.258       .  A
C41         C894   1.465       .  S
O42          C50   1.262       .  A
O43          C50   1.264       .  A
C44          O51   1.262       .  A
C44          O45   1.262       .  A
C44        C1182   1.483       .  S
C46          O48   1.262       .  A
C46          O52   1.262       .  A
C46         C990   1.494       .  S
C50         C862   1.487       .  S
In53         O55   2.213       .  S
In53         O56   2.227       .  S
In53         O64   2.227       .  S
In53         O58   2.246       .  S
In53         O60   2.269       .  S
In53         O61   2.238       .  S
In53         O62   2.206       .  S
In53         O65   2.224       .  S
C54          O60   1.264       .  A
C54          O62   1.258       .  A
C54         C734   1.491   1_565  S
O55          C63   1.263       .  A
O56          C63   1.262       .  A
C57          O64   1.259       .  A
C57          O58   1.265       .  A
C57         C798   1.491       .  S
C59          O61   1.260       .  A
C59          O65   1.261       .  A
C59         C766   1.469       .  S
C63         C821   1.478       .  S
In66         O68   2.218       .  S
In66         O69   2.233       .  S
In66         O77   2.207       .  S
In66         O71   2.249       .  S
In66         O73   2.254       .  S
In66         O74   2.252       .  S
In66         O75   2.199       .  S
In66         O78   2.214       .  S
C67          O73   1.266   1_565  A
C67          O75   1.261   1_565  A
C67         C670   1.485       .  S
O68          C76   1.261       .  A
O69          C76   1.264       .  A
C70          O77   1.261       .  A
C70          O71   1.266       .  A
C70         C693   1.481       .  S
C72          O74   1.266       .  A
C72          O78   1.260       .  A
C72         C638   1.480       .  S
C76         C830   1.469       .  S
In79         O81   2.222       .  S
In79         O82   2.245       .  S
In79         O90   2.222       .  S
In79         O84   2.245       .  S
In79         O86   2.249       .  S
In79         O87   2.257       .  S
In79         O88   2.205       .  S
In79         O91   2.214       .  S
C80          O86   1.267       .  A
C80          O88   1.262       .  A
C80         C853   1.482       .  S
O81          C89   1.260       .  A
O82          C89   1.267       .  A
C83          O90   1.262       .  A
C83          O84   1.264       .  A
C83         C702   1.486       .  S
C85          O87   1.268       .  A
C85          O91   1.259       .  A
C85         C949   1.492       .  S
C89         C606   1.478       .  S
In92         O94   2.215       .  S
In92         O95   2.246       .  S
In92        O103   2.223       .  S
In92         O97   2.241       .  S
In92         O99   2.252       .  S
In92        O100   2.248       .  S
In92        O101   2.216       .  S
In92        O104   2.199       .  S
C93          O99   1.265       .  A
C93         O101   1.262       .  A
C93         C917   1.492       .  S
O94         C102   1.259       .  A
O95         C102   1.267       .  A
C96         O103   1.260       .  A
C96          O97   1.267       .  A
C96         C789   1.491       .  S
C98         O100   1.266       .  A
C98         O104   1.261       .  A
C98         C885   1.471       .  S
C102        C597   1.487       .  S
In105       O107   2.214       .  S
In105       O108   2.269       .  S
In105       O116   2.247       .  S
In105       O110   2.258       .  S
In105       O112   2.259       .  S
In105       O113   2.256       .  S
In105       O114   2.227       .  S
In105       O117   2.221       .  S
C106        O112   1.265       .  A
C106        O114   1.261       .  A
C106        C501   1.471   1_655  S
O107        C115   1.259       .  A
O108        C115   1.265       .  A
C109        O116   1.260       .  A
C109        O110   1.263       .  A
C109        C533   1.485       .  S
C111        O113   1.265       .  A
C111        O117   1.262       .  A
C111        C565   1.483       .  S
C115        C469   1.481   1_556  S
In118       O120   2.220       .  S
In118       O121   2.240       .  S
In118       O129   2.243       .  S
In118       O123   2.267       .  S
In118       O125   2.281       .  S
In118       O126   2.238       .  S
In118       O127   2.211       .  S
In118       O130   2.232       .  S
C119        O125   1.267   1_655  A
C119        O127   1.258   1_655  A
C119        C382   1.478       .  S
O120        C128   1.263       .  A
O121        C128   1.262       .  A
C122        O129   1.259       .  A
C122        O123   1.265       .  A
C122        C437   1.481       .  S
C124        O126   1.265       .  A
C124        O130   1.261       .  A
C124        C574   1.492       .  S
C128        C414   1.489       .  S
In131       O133   2.223       .  S
In131       O134   2.237       .  S
In131       O142   2.233       .  S
In131       O136   2.251       .  S
In131       O138   2.261       .  S
In131       O139   2.239       .  S
In131       O140   2.208       .  S
In131       O143   2.227       .  S
C132        O138   1.266       .  A
C132        O140   1.259       .  A
C132        C757   1.467       .  S
O133        C141   1.263       .  A
O134        C141   1.264       .  A
C135        O142   1.261       .  A
C135        O136   1.265       .  A
C135        C542   1.488       .  S
C137        O139   1.263       .  A
C137        O143   1.261       .  A
C137        C350   1.479       .  S
C141        C661   1.482       .  S
In144       O146   2.212       .  S
In144       O147   2.269       .  S
In144       O155   2.257       .  S
In144       O149   2.258       .  S
In144       O151   2.271       .  S
In144       O152   2.252       .  S
In144       O153   2.235       .  S
In144       O156   2.224       .  S
C145        O151   1.265       .  A
C145        O153   1.259       .  A
C145        C629   1.485       .  S
O146        C154   1.261       .  A
O147        C154   1.265       .  A
C148        O155   1.261       .  A
C148        O149   1.264       .  A
C148        C446   1.488       .  S
C150        O152   1.266       .  A
C150        O156   1.259       .  A
C150        C341   1.492       .  S
C154        C725   1.489       .  S
In157       O159   2.215       .  S
In157       O160   2.259       .  S
In157       O168   2.243       .  S
In157       O162   2.252       .  S
In157       O164   2.258       .  S
In157       O165   2.265       .  S
In157       O166   2.220       .  S
In157       O169   2.215       .  S
C158        O164   1.263       .  A
C158        O166   1.261       .  A
C158        C478   1.491   1_545  S
O159        C167   1.261       .  A
O160        C167   1.264       .  A
C161        O168   1.263       .  A
C161        O162   1.261       .  A
C161        C277   1.498       .  S
C163        O165   1.265       .  A
C163        O169   1.259       .  A
C163        C373   1.482       .  S
C167        C309   1.484       .  S
In170       O172   2.229       .  S
In170       O173   2.230       .  S
In170       O181   2.227       .  S
In170       O175   2.249       .  S
In170       O177   2.268       .  S
In170       O178   2.253       .  S
In170       O179   2.204       .  S
In170       O182   2.220       .  S
C171        O177   1.264       .  A
C171        O179   1.258       .  A
C171        C405   1.478   1_565  S
O172        C180   1.264       .  A
O173        C180   1.262       .  A
C174        O181   1.260       .  A
C174        O175   1.265       .  A
C174        C245   1.478       .  S
C176        O178   1.261       .  A
C176        O182   1.260       .  A
C176        C510   1.475       .  S
C180        C318   1.488       .  S
In183       O185   2.213       .  S
In183       O186   2.258       .  S
In183       O194   2.233       .  S
In183       O188   2.254       .  S
In183       O190   2.255       .  S
In183       O191   2.266       .  S
In183       O192   2.225       .  S
In183       O195   2.208       .  S
C184        O190   1.267       .  A
C184        O192   1.262       .  A
C184       C1150   1.486       .  S
O185        C193   1.261       .  A
O186        C193   1.268       .  A
C187        O194   1.263       .  A
C187        O188   1.265       .  A
C187        C286   1.497       .  S
C189        O191   1.268       .  A
C189        O195   1.258       .  A
C189       C1054   1.486       .  S
C193        C222   1.483       .  S
In196       O198   2.226       .  S
In196       O199   2.239       .  S
In196       O207   2.218       .  S
In196       O201   2.253       .  S
In196       O203   2.262       .  S
In196       O204   2.265       .  S
In196       O205   2.209       .  S
In196       O208   2.208       .  S
C197        O203   1.268       .  A
C197        O205   1.260       .  A
C197       C1013   1.474       .  S
O198        C206   1.261       .  A
O199        C206   1.268       .  A
C200        O207   1.260       .  A
C200        O201   1.268       .  A
C200        C254   1.487       .  S
C202        O204   1.267       .  A
C202        O208   1.259       .  A
C202       C1118   1.480       .  S
C206        C213   1.492       .  S
C209        C210   1.400       .  A
C209        C214   1.409       .  A
C209        H219   1.083       .  S
C210        C215   1.483       .  S
C210        C211   1.413       .  A
C211        C212   1.405       .  A
C211        C216   1.521       .  S
C212        C213   1.407       .  A
C212        H217   1.082       .  S
C213        C214   1.427       .  A
C214        C218   1.522       .  S
C215        C220   1.415       .  A
C215        C224   1.398       .  A
C216        F232   1.382       .  S
C216        F233   1.381       .  S
C216        F234   1.384       .  S
C218        F229   1.385       .  S
C218        F230   1.384       .  S
C218        F231   1.382       .  S
C220        C221   1.410       .  A
C220        C225   1.519       .  S
C221        C222   1.405       .  A
C221        H226   1.083       .  S
C222        C223   1.422       .  A
C223        C224   1.404       .  A
C223        C227   1.521       .  S
C224        H228   1.083       .  S
C225        F238   1.385       .  S
C225        F239   1.382       .  S
C225        F240   1.381       .  S
C227        F235   1.382       .  S
C227        F236   1.383       .  S
C227        F237   1.385       .  S
C241        C242   1.401       .  A
C241        C246   1.406       .  A
C241        H251   1.083       .  S
C242        C247   1.482       .  S
C242        C243   1.415       .  A
C243        C244   1.407       .  A
C243        C248   1.519       .  S
C244        C245   1.404       .  A
C244        H249   1.083       .  S
C245        C246   1.419       .  A
C246        C250   1.519       .  S
C247        C252   1.414       .  A
C247        C256   1.398       .  A
C248        F264   1.382       .  S
C248        F265   1.382       .  S
C248        F266   1.385       .  S
C250        F261   1.385       .  S
C250        F262   1.384       .  S
C250        F263   1.382       .  S
C252        C253   1.408       .  A
C252        C257   1.519       .  S
C253        C254   1.406       .  A
C253        H258   1.083       .  S
C254        C255   1.425       .  A
C255        C256   1.406       .  A
C255        C259   1.521       .  S
C256        H260   1.083       .  S
C257        F270   1.384       .  S
C257        F271   1.382       .  S
C257        F272   1.382       .  S
C259        F267   1.385       .  S
C259        F268   1.383       .  S
C259        F269   1.384       .  S
C273        C274   1.402       .  A
C273        C278   1.412       .  A
C273        H283   1.083       .  S
C274        C279   1.490       .  S
C274        C275   1.413       .  A
C275        C276   1.407       .  A
C275        C280   1.520       .  S
C276        C277   1.409       .  A
C276        H281   1.082       .  S
C277        C278   1.426       .  A
C278        C282   1.520       .  S
C279        C284   1.414       .  A
C279        C288   1.402       .  A
C280        F296   1.382       .  S
C280        F297   1.382       .  S
C280        F298   1.385       .  S
C282        F293   1.385       .  S
C282        F294   1.383       .  S
C282        F295   1.383       .  S
C284        C285   1.407       .  A
C284        C289   1.521       .  S
C285        C286   1.409       .  A
C285        H290   1.082       .  S
C286        C287   1.425       .  A
C287        C288   1.412       .  A
C287        C291   1.519       .  S
C288        H292   1.083       .  S
C289        F302   1.385       .  S
C289        F303   1.382       .  S
C289        F304   1.382       .  S
C291        F299   1.385       .  S
C291        F300   1.384       .  S
C291        F301   1.383       .  S
C305        C306   1.402   1_545  A
C305        C310   1.409       .  A
C305        H315   1.083       .  S
C306        C311   1.479       .  S
C306        C307   1.412       .  A
C307        C308   1.402       .  A
C307        C312   1.521       .  S
C308        C309   1.407   1_565  A
C308        H313   1.083       .  S
C309        C310   1.420       .  A
C310        C314   1.518       .  S
C311        C316   1.412       .  A
C311        C320   1.399       .  A
C312        F328   1.382       .  S
C312        F329   1.382       .  S
C312        F330   1.385       .  S
C314        F325   1.385       .  S
C314        F326   1.383       .  S
C314        F327   1.383       .  S
C316        C317   1.403       .  A
C316        C321   1.521   1_565  S
C317        C318   1.408       .  A
C317        H322   1.082       .  S
C318        C319   1.425       .  A
C319        C320   1.408       .  A
C319        C323   1.520       .  S
C320        H324   1.083       .  S
C321        F334   1.384       .  S
C321        F335   1.382       .  S
C321        F336   1.382       .  S
C323        F331   1.383       .  S
C323        F332   1.384       .  S
C323        F333   1.385       .  S
C337        C338   1.397       .  A
C337        C342   1.405       .  A
C337        H347   1.083       .  S
C338        C343   1.481       .  S
C338        C339   1.413       .  A
C339        C340   1.408       .  A
C339        C344   1.520       .  S
C340        C341   1.409       .  A
C340        H345   1.082       .  S
C341        C342   1.427       .  A
C342        C346   1.521       .  S
C343        C348   1.414       .  A
C343        C352   1.402       .  A
C344        F360   1.383       .  S
C344        F361   1.381       .  S
C344        F362   1.385       .  S
C346        F357   1.382       .  S
C346        F358   1.385       .  S
C346        F359   1.384       .  S
C348        C349   1.404       .  A
C348        C353   1.520       .  S
C349        C350   1.405       .  A
C349        H354   1.082       .  S
C350        C351   1.418       .  A
C351        C352   1.407       .  A
C351        C355   1.519       .  S
C352        H356   1.083       .  S
C353        F366   1.385       .  S
C353        F367   1.382       .  S
C353        F368   1.381       .  S
C355        F363   1.384       .  S
C355        F364   1.382       .  S
C355        F365   1.384       .  S
C369        C370   1.399   1_554  A
C369        C374   1.403       .  A
C369        H379   1.084       .  S
C370        C375   1.482       .  S
C370        C371   1.414       .  A
C371        C372   1.411       .  A
C371        C376   1.516       .  S
C372        C373   1.407   1_556  A
C372        H377   1.083       .  S
C373        C374   1.420       .  A
C374        C378   1.520       .  S
C375        C380   1.417       .  A
C375        C384   1.405       .  A
C376        F392   1.383       .  S
C376        F393   1.383       .  S
C376        F394   1.385       .  S
C378        F389   1.384       .  S
C378        F390   1.385       .  S
C378        F391   1.383       .  S
C380        C381   1.403       .  A
C380        C385   1.519       .  S
C381        C382   1.403       .  A
C381        H386   1.085       .  S
C382        C383   1.415       .  A
C383        C384   1.409       .  A
C383        C387   1.517       .  S
C384        H388   1.083       .  S
C385        F398   1.383       .  S
C385        F399   1.384       .  S
C385        F400   1.381       .  S
C387        F395   1.383   1_655  S
C387        F396   1.382       .  S
C387        F397   1.385       .  S
C401        C402   1.402       .  A
C401        C406   1.409       .  A
C401        H411   1.083       .  S
C402        C407   1.479       .  S
C402        C403   1.413       .  A
C403        C404   1.400       .  A
C403        C408   1.520       .  S
C404        C405   1.404       .  A
C404        H409   1.084       .  S
C405        C406   1.418       .  A
C406        C410   1.516   1_545  S
C407        C412   1.413       .  A
C407        C416   1.399       .  A
C408        F424   1.382       .  S
C408        F425   1.382   1_554  S
C408        F426   1.385       .  S
C410        F421   1.383       .  S
C410        F422   1.385   1_565  S
C410        F423   1.383       .  S
C412        C413   1.401   1_554  A
C412        C417   1.521   1_554  S
C413        C414   1.407       .  A
C413        H418   1.082       .  S
C414        C415   1.425   1_556  A
C415        C416   1.409       .  A
C415        C419   1.519       .  S
C416        H420   1.083       .  S
C417        F430   1.385       .  S
C417        F431   1.383   1_556  S
C417        F432   1.382       .  S
C419        F427   1.385       .  S
C419        F428   1.384       .  S
C419        F429   1.383       .  S
C433        C434   1.405       .  A
C433        C438   1.411       .  A
C433        H443   1.083       .  S
C434        C439   1.494       .  S
C434        C435   1.419       .  A
C435        C436   1.410       .  A
C435        C440   1.519       .  S
C436        C437   1.403       .  A
C436        H441   1.083       .  S
C437        C438   1.415       .  A
C438        C442   1.517       .  S
C439        C444   1.417       .  A
C439        C448   1.403       .  A
C440        F456   1.382       .  S
C440        F457   1.382       .  S
C440        F458   1.385       .  S
C442        F453   1.384       .  S
C442        F454   1.384       .  S
C442        F455   1.382       .  S
C444        C445   1.412       .  A
C444        C449   1.519       .  S
C445        C446   1.406       .  A
C445        H450   1.083       .  S
C446        C447   1.418       .  A
C447        C448   1.410       .  A
C447        C451   1.517       .  S
C448        H452   1.083       .  S
C449        F462   1.384       .  S
C449        F463   1.383       .  S
C449        F464   1.383       .  S
C451        F459   1.384       .  S
C451        F460   1.383       .  S
C451        F461   1.382       .  S
C465        C466   1.404       .  A
C465        C470   1.411       .  A
C465        H475   1.083       .  S
C466        C471   1.483       .  S
C466        C467   1.415       .  A
C467        C468   1.402       .  A
C467        C472   1.522       .  S
C468        C469   1.404       .  A
C468        H473   1.083   1_554  S
C469        C470   1.418       .  A
C470        C474   1.517       .  S
C471        C476   1.413       .  A
C471        C480   1.401       .  A
C472        F488   1.382       .  S
C472        F489   1.383       .  S
C472        F490   1.384       .  S
C474        F485   1.385       .  S
C474        F486   1.383       .  S
C474        F487   1.384   1_554  S
C476        C477   1.402       .  A
C476        C481   1.521   1_554  S
C477        C478   1.408       .  A
C477        H482   1.082       .  S
C478        C479   1.424       .  A
C479        C480   1.411       .  A
C479        C483   1.519       .  S
C480        H484   1.083       .  S
C481        F494   1.385       .  S
C481        F495   1.382   1_556  S
C481        F496   1.383       .  S
C483        F491   1.383       .  S
C483        F492   1.383       .  S
C483        F493   1.385       .  S
C497        C498   1.401       .  A
C497        C502   1.406       .  A
C497        H507   1.083       .  S
C498        C503   1.482       .  S
C498        C499   1.417       .  A
C499        C500   1.407       .  A
C499        C504   1.520       .  S
C500        C501   1.401       .  A
C500        H505   1.084   1_455  S
C501        C502   1.414       .  A
C502        C506   1.515       .  S
C503        C508   1.416   1_556  A
C503        C512   1.403       .  A
C504        F520   1.383       .  S
C504        F521   1.383   1_556  S
C504        F522   1.385       .  S
C506        F517   1.385       .  S
C506        F518   1.383       .  S
C506        F519   1.382       .  S
C508        C509   1.401       .  A
C508        C513   1.520       .  S
C509        C510   1.400       .  A
C509        H514   1.083       .  S
C510        C511   1.419       .  A
C511        C512   1.410   1_554  A
C511        C515   1.518   1_554  S
C512        H516   1.083       .  S
C513        F526   1.385       .  S
C513        F527   1.382       .  S
C513        F528   1.382       .  S
C515        F523   1.384       .  S
C515        F524   1.383       .  S
C515        F525   1.384   1_556  S
C529        C530   1.402       .  A
C529        C534   1.410       .  A
C529        H539   1.083       .  S
C530        C535   1.488       .  S
C530        C531   1.416       .  A
C531        C532   1.409       .  A
C531        C536   1.519       .  S
C532        C533   1.404       .  A
C532        H537   1.083       .  S
C533        C534   1.420       .  A
C534        C538   1.519       .  S
C535        C540   1.415       .  A
C535        C544   1.402       .  A
C536        F552   1.383       .  S
C536        F553   1.381       .  S
C536        F554   1.384       .  S
C538        F549   1.385       .  S
C538        F550   1.383       .  S
C538        F551   1.383       .  S
C540        C541   1.408       .  A
C540        C545   1.520       .  S
C541        C542   1.408       .  A
C541        H546   1.083       .  S
C542        C543   1.420       .  A
C543        C544   1.409       .  A
C543        C547   1.518       .  S
C544        H548   1.083       .  S
C545        F558   1.385       .  S
C545        F559   1.382       .  S
C545        F560   1.381       .  S
C547        F555   1.384       .  S
C547        F556   1.384       .  S
C547        F557   1.382       .  S
C561        C562   1.403       .  A
C561        C566   1.410       .  A
C561        H571   1.083       .  S
C562        C567   1.483   1_655  S
C562        C563   1.413   1_655  A
C563        C564   1.403   1_455  A
C563        C568   1.520       .  S
C564        C565   1.405       .  A
C564        H569   1.082   1_655  S
C565        C566   1.419       .  A
C566        C570   1.518       .  S
C567        C572   1.412       .  A
C567        C576   1.399       .  A
C568        F584   1.382       .  S
C568        F585   1.382       .  S
C568        F586   1.385       .  S
C570        F581   1.383       .  S
C570        F582   1.385       .  S
C570        F583   1.383       .  S
C572        C573   1.405       .  A
C572        C577   1.519       .  S
C573        C574   1.409       .  A
C573        H578   1.082       .  S
C574        C575   1.426       .  A
C575        C576   1.408       .  A
C575        C579   1.521       .  S
C576        H580   1.083   1_455  S
C577        F590   1.385   1_556  S
C577        F591   1.382   1_456  S
C577        F592   1.382       .  S
C579        F587   1.385   1_455  S
C579        F588   1.384   1_455  S
C579        F589   1.383       .  S
C593        C594   1.398       .  A
C593        C598   1.406       .  A
C593        H603   1.083       .  S
C594        C599   1.481   1_455  S
C594        C595   1.414       .  A
C595        C596   1.406       .  A
C595        C600   1.519       .  S
C596        C597   1.407       .  A
C596        H601   1.083       .  S
C597        C598   1.425       .  A
C598        C602   1.521       .  S
C599        C604   1.416       .  A
C599        C608   1.399       .  A
C600        F616   1.382   1_455  S
C600        F617   1.383   1_455  S
C600        F618   1.385       .  S
C602        F613   1.385       .  S
C602        F614   1.384       .  S
C602        F615   1.383       .  S
C604        C605   1.406       .  A
C604        C609   1.519   1_655  S
C605        C606   1.402       .  A
C605        H610   1.083       .  S
C606        C607   1.422       .  A
C607        C608   1.405       .  A
C607        C611   1.519       .  S
C608        H612   1.083       .  S
C609        F622   1.385   1_455  S
C609        F623   1.382       .  S
C609        F624   1.382       .  S
C611        F619   1.382       .  S
C611        F620   1.381       .  S
C611        F621   1.385       .  S
C625        C626   1.403       .  A
C625        C630   1.408       .  A
C625        H635   1.083       .  S
C626        C631   1.486       .  S
C626        C627   1.416       .  A
C627        C628   1.408       .  A
C627        C632   1.521       .  S
C628        C629   1.406       .  A
C628        H633   1.083       .  S
C629        C630   1.418       .  A
C630        C634   1.517       .  S
C631        C636   1.417       .  A
C631        C640   1.401       .  A
C632        F648   1.382       .  S
C632        F649   1.382       .  S
C632        F650   1.384       .  S
C634        F645   1.385       .  S
C634        F646   1.382       .  S
C634        F647   1.383       .  S
C636        C637   1.411       .  A
C636        C641   1.518       .  S
C637        C638   1.406       .  A
C637        H642   1.083       .  S
C638        C639   1.418       .  A
C639        C640   1.402       .  A
C639        C643   1.521       .  S
C640        H644   1.084       .  S
C641        F654   1.385       .  S
C641        F655   1.381       .  S
C641        F656   1.381       .  S
C643        F651   1.382       .  S
C643        F652   1.384       .  S
C643        F653   1.385       .  S
C657        C658   1.400       .  A
C657        C662   1.407       .  A
C657        H667   1.083       .  S
C658        C663   1.480       .  S
C658        C659   1.415       .  A
C659        C660   1.403       .  A
C659        C664   1.522       .  S
C660        C661   1.405       .  A
C660        H665   1.083       .  S
C661        C662   1.420       .  A
C662        C666   1.518       .  S
C663        C668   1.413       .  A
C663        C672   1.402       .  A
C664        F680   1.382       .  S
C664        F681   1.383       .  S
C664        F682   1.385       .  S
C666        F677   1.384       .  S
C666        F678   1.383       .  S
C666        F679   1.384       .  S
C668        C669   1.400       .  A
C668        C673   1.521       .  S
C669        C670   1.407       .  A
C669        H674   1.083       .  S
C670        C671   1.421       .  A
C671        C672   1.409       .  A
C671        C675   1.518       .  S
C672        H676   1.083       .  S
C673        F686   1.385       .  S
C673        F687   1.382       .  S
C673        F688   1.383       .  S
C675        F683   1.383       .  S
C675        F684   1.383       .  S
C675        F685   1.385       .  S
C689        C690   1.403       .  A
C689        C694   1.408       .  A
C689        H699   1.083       .  S
C690        C695   1.482       .  S
C690        C691   1.414       .  A
C691        C692   1.402       .  A
C691        C696   1.520       .  S
C692        C693   1.406       .  A
C692        H697   1.083       .  S
C693        C694   1.419       .  A
C694        C698   1.518       .  S
C695        C700   1.414       .  A
C695        C704   1.401       .  A
C696        F712   1.381       .  S
C696        F713   1.383       .  S
C696        F714   1.385       .  S
C698        F709   1.385       .  S
C698        F710   1.382       .  S
C698        F711   1.384       .  S
C700        C701   1.404       .  A
C700        C705   1.521       .  S
C701        C702   1.407       .  A
C701        H706   1.083       .  S
C702        C703   1.422       .  A
C703        C704   1.408       .  A
C703        C707   1.519       .  S
C704        H708   1.083       .  S
C705        F718   1.384       .  S
C705        F719   1.382       .  S
C705        F720   1.383       .  S
C707        F715   1.385       .  S
C707        F716   1.383       .  S
C707        F717   1.383       .  S
C721        C722   1.402       .  A
C721        C726   1.412       .  A
C721        H731   1.083       .  S
C722        C727   1.483       .  S
C722        C723   1.413       .  A
C723        C724   1.401       .  A
C723        C728   1.521       .  S
C724        C725   1.406       .  A
C724        H729   1.081       .  S
C725        C726   1.422       .  A
C726        C730   1.518       .  S
C727        C732   1.413       .  A
C727        C736   1.402       .  A
C728        F744   1.382       .  S
C728        F745   1.383       .  S
C728        F746   1.385       .  S
C730        F741   1.383       .  S
C730        F742   1.385       .  S
C730        F743   1.383       .  S
C732        C733   1.400       .  A
C732        C737   1.522       .  S
C733        C734   1.409       .  A
C733        H738   1.082       .  S
C734        C735   1.423       .  A
C735        C736   1.411       .  A
C735        C739   1.518       .  S
C736        H740   1.083       .  S
C737        F750   1.385       .  S
C737        F751   1.382       .  S
C737        F752   1.383       .  S
C739        F747   1.385       .  S
C739        F748   1.383       .  S
C739        F749   1.383   1_545  S
C753        C754   1.402       .  A
C753        C758   1.408       .  A
C753        H763   1.083       .  S
C754        C759   1.477       .  S
C754        C755   1.416       .  A
C755        C756   1.402       .  A
C755        C760   1.521       .  S
C756        C757   1.400       .  A
C756        H761   1.084       .  S
C757        C758   1.414       .  A
C758        C762   1.515       .  S
C759        C764   1.417       .  A
C759        C768   1.400       .  A
C760        F776   1.382       .  S
C760        F777   1.383       .  S
C760        F778   1.384       .  S
C762        F773   1.382       .  S
C762        F774   1.385       .  S
C762        F775   1.383       .  S
C764        C765   1.402       .  A
C764        C769   1.520       .  S
C765        C766   1.400       .  A
C765        H770   1.083       .  S
C766        C767   1.418       .  A
C767        C768   1.406       .  A
C767        C771   1.519       .  S
C768        H772   1.083       .  S
C769        F782   1.385       .  S
C769        F783   1.382       .  S
C769        F784   1.382       .  S
C771        F779   1.383       .  S
C771        F780   1.384       .  S
C771        F781   1.384       .  S
C785        C786   1.399       .  A
C785        C790   1.408       .  A
C785        H795   1.083       .  S
C786        C791   1.482       .  S
C786        C787   1.413       .  A
C787        C788   1.405       .  A
C787        C792   1.520       .  S
C788        C789   1.407       .  A
C788        H793   1.082       .  S
C789        C790   1.427       .  A
C790        C794   1.521       .  S
C791        C796   1.413       .  A
C791        C800   1.398       .  A
C792        F808   1.382       .  S
C792        F809   1.382       .  S
C792        F810   1.384       .  S
C794        F805   1.383       .  S
C794        F806   1.385       .  S
C794        F807   1.384       .  S
C796        C797   1.406       .  A
C796        C801   1.519       .  S
C797        C798   1.409       .  A
C797        H802   1.082       .  S
C798        C799   1.427       .  A
C799        C800   1.406       .  A
C799        C803   1.521       .  S
C800        H804   1.083       .  S
C801        F814   1.385       .  S
C801        F815   1.382       .  S
C801        F816   1.382       .  S
C803        F811   1.383       .  S
C803        F812   1.383       .  S
C803        F813   1.385       .  S
C817        C818   1.399       .  A
C817        C822   1.404       .  A
C817        H827   1.083       .  S
C818        C823   1.473   1_455  S
C818        C819   1.411       .  A
C819        C820   1.400       .  A
C819        C824   1.520       .  S
C820        C821   1.406       .  A
C820        H825   1.083       .  S
C821        C822   1.422       .  A
C822        C826   1.521       .  S
C823        C828   1.413       .  A
C823        C832   1.401   1_565  A
C824        F840   1.382   1_565  S
C824        F841   1.382       .  S
C824        F842   1.385       .  S
C826        F837   1.385       .  S
C826        F838   1.384       .  S
C826        F839   1.383       .  S
C828        C829   1.401       .  A
C828        C833   1.521       .  S
C829        C830   1.402   1_565  A
C829        H834   1.083       .  S
C830        C831   1.416       .  A
C831        C832   1.405       .  A
C831        C835   1.518       .  S
C832        H836   1.083   1_655  S
C833        F846   1.384       .  S
C833        F847   1.382       .  S
C833        F848   1.383       .  S
C835        F843   1.382       .  S
C835        F844   1.384       .  S
C835        F845   1.385       .  S
C849        C850   1.402       .  A
C849        C854   1.409       .  A
C849        H859   1.083       .  S
C850        C855   1.477       .  S
C850        C851   1.411       .  A
C851        C852   1.400       .  A
C851        C856   1.521       .  S
C852        C853   1.407       .  A
C852        H857   1.082       .  S
C853        C854   1.419       .  A
C854        C858   1.517       .  S
C855        C860   1.412       .  A
C855        C864   1.400       .  A
C856        F872   1.382       .  S
C856        F873   1.382       .  S
C856        F874   1.385       .  S
C858        F869   1.383       .  S
C858        F870   1.385       .  S
C858        F871   1.383       .  S
C860        C861   1.400       .  A
C860        C865   1.523       .  S
C861        C862   1.408       .  A
C861        H866   1.082       .  S
C862        C863   1.423       .  A
C863        C864   1.410       .  A
C863        C867   1.519       .  S
C864        H868   1.083       .  S
C865        F878   1.384       .  S
C865        F879   1.382       .  S
C865        F880   1.382       .  S
C867        F875   1.383       .  S
C867        F876   1.383       .  S
C867        F877   1.385       .  S
C881        C882   1.401       .  A
C881        C886   1.407       .  A
C881        H891   1.083       .  S
C882        C887   1.477       .  S
C882        C883   1.415       .  A
C883        C884   1.401       .  A
C883        C888   1.521       .  S
C884        C885   1.402       .  A
C884        H889   1.083       .  S
C885        C886   1.417       .  A
C886        C890   1.517       .  S
C887        C892   1.417       .  A
C887        C896   1.401       .  A
C888        F904   1.382       .  S
C888        F905   1.383       .  S
C888        F906   1.385       .  S
C890        F901   1.385       .  S
C890        F902   1.382       .  S
C890        F903   1.383       .  S
C892        C893   1.402       .  A
C892        C897   1.521       .  S
C893        C894   1.400       .  A
C893        H898   1.084       .  S
C894        C895   1.413       .  A
C895        C896   1.406       .  A
C895        C899   1.516       .  S
C896        H900   1.083       .  S
C897        F910   1.385       .  S
C897        F911   1.382       .  S
C897        F912   1.383       .  S
C899        F907   1.384       .  S
C899        F908   1.383       .  S
C899        F909   1.383       .  S
C913        C914   1.402       .  A
C913        C918   1.412       .  A
C913        H923   1.083       .  S
C914        C919   1.484       .  S
C914        C915   1.413       .  A
C915        C916   1.403       .  A
C915        C920   1.521       .  S
C916        C917   1.408       .  A
C916        H921   1.082       .  S
C917        C918   1.424       .  A
C918        C922   1.519       .  S
C919        C924   1.413       .  A
C919        C928   1.400       .  A
C920        F936   1.382       .  S
C920        F937   1.382       .  S
C920        F938   1.384       .  S
C922        F933   1.384       .  S
C922        F934   1.384       .  S
C922        F935   1.383       .  S
C924        C925   1.407       .  A
C924        C929   1.521       .  S
C925        C926   1.410       .  A
C925        H930   1.083       .  S
C926        C927   1.423       .  A
C927        C928   1.409       .  A
C927        C931   1.518       .  S
C928        H932   1.083       .  S
C929        F942   1.385       .  S
C929        F943   1.383       .  S
C929        F944   1.383       .  S
C931        F939   1.383       .  S
C931        F940   1.383       .  S
C931        F941   1.384       .  S
C945        C946   1.398       .  A
C945        C950   1.404       .  A
C945        H955   1.083       .  S
C946        C951   1.483       .  S
C946        C947   1.412       .  A
C947        C948   1.409       .  A
C947        C952   1.518       .  S
C948        C949   1.410       .  A
C948        H953   1.082       .  S
C949        C950   1.427       .  A
C950        C954   1.522       .  S
C951        C956   1.414       .  A
C951        C960   1.405       .  A
C952        F968   1.382       .  S
C952        F969   1.382       .  S
C952        F970   1.385       .  S
C954        F965   1.385       .  S
C954        F966   1.383       .  S
C954        F967   1.383       .  S
C956        C957   1.404       .  A
C956        C961   1.521       .  S
C957        C958   1.406       .  A
C957        H962   1.084       .  S
C958        C959   1.416       .  A
C959        C960   1.410       .  A
C959        C963   1.516       .  S
C960        H964   1.083       .  S
C961        F974   1.385       .  S
C961        F975   1.382       .  S
C961        F976   1.381       .  S
C963        F971   1.383       .  S
C963        F972   1.383       .  S
C963        F973   1.385       .  S
C977        C978   1.398       .  A
C977        C982   1.405       .  A
C977        H987   1.083       .  S
C978        C983   1.488   1_545  S
C978        C979   1.416       .  A
C979        C980   1.411       .  A
C979        C984   1.518   1_545  S
C980        C981   1.408       .  A
C980        H985   1.083       .  S
C981        C982   1.426       .  A
C982        C986   1.521       .  S
C983        C988   1.415       .  A
C983        C992   1.401       .  A
C984       F1000   1.383       .  S
C984       F1001   1.383       .  S
C984       F1002   1.385   1_565  S
C986        F997   1.383       .  S
C986        F998   1.385       .  S
C986        F999   1.384       .  S
C988        C989   1.405       .  A
C988        C993   1.522       .  S
C989        C990   1.408       .  A
C989        H994   1.082       .  S
C990        C991   1.425       .  A
C991        C992   1.411       .  A
C991        C995   1.519       .  S
C992        H996   1.083       .  S
C993       F1006   1.385       .  S
C993       F1007   1.382       .  S
C993       F1008   1.383       .  S
C995       F1003   1.383       .  S
C995       F1004   1.384       .  S
C995       F1005   1.384       .  S
C1009      C1010   1.402       .  A
C1009      C1014   1.407       .  A
C1009      H1019   1.083       .  S
C1010      C1015   1.484       .  S
C1010      C1011   1.418       .  A
C1011      C1012   1.407       .  A
C1011      C1016   1.520       .  S
C1012      C1013   1.401       .  A
C1012      H1017   1.082       .  S
C1013      C1014   1.416       .  A
C1014      C1018   1.519       .  S
C1015      C1020   1.413       .  A
C1015      C1024   1.400       .  A
C1016      F1032   1.383       .  S
C1016      F1033   1.381       .  S
C1016      F1034   1.385       .  S
C1018      F1029   1.384       .  S
C1018      F1030   1.382       .  S
C1018      F1031   1.383       .  S
C1020      C1021   1.409       .  A
C1020      C1025   1.518       .  S
C1021      C1022   1.406       .  A
C1021      H1026   1.083       .  S
C1022      C1023   1.424       .  A
C1023      C1024   1.406       .  A
C1023      C1027   1.521       .  S
C1024      H1028   1.084       .  S
C1025      F1038   1.385       .  S
C1025      F1039   1.382       .  S
C1025      F1040   1.382       .  S
C1027      F1035   1.384       .  S
C1027      F1036   1.383       .  S
C1027      F1037   1.385       .  S
C1041      C1042   1.404       .  A
C1041      C1046   1.410       .  A
C1041      H1051   1.083       .  S
C1042      C1047   1.488       .  S
C1042      C1043   1.416       .  A
C1043      C1044   1.405       .  A
C1043      C1048   1.520       .  S
C1044      C1045   1.405       .  A
C1044      H1049   1.082       .  S
C1045      C1046   1.416       .  A
C1046      C1050   1.517       .  S
C1047      C1052   1.416       .  A
C1047      C1056   1.400       .  A
C1048      F1064   1.382       .  S
C1048      F1065   1.382       .  S
C1048      F1066   1.385       .  S
C1050      F1061   1.385       .  S
C1050      F1062   1.383   1_655  S
C1050      F1063   1.382       .  S
C1052      C1053   1.411       .  A
C1052      C1057   1.518       .  S
C1053      C1054   1.406       .  A
C1053      H1058   1.083       .  S
C1054      C1055   1.423       .  A
C1055      C1056   1.405       .  A
C1055      C1059   1.522       .  S
C1056      H1060   1.083       .  S
C1057      F1070   1.385       .  S
C1057      F1071   1.382       .  S
C1057      F1072   1.383       .  S
C1059      F1067   1.383       .  S
C1059      F1068   1.384       .  S
C1059      F1069   1.385       .  S
C1073      C1074   1.399       .  A
C1073      C1078   1.410       .  A
C1073      H1083   1.083       .  S
C1074      C1079   1.493       .  S
C1074      C1075   1.415       .  A
C1075      C1076   1.412       .  A
C1075      C1080   1.519       .  S
C1076      C1077   1.410       .  A
C1076      H1081   1.082       .  S
C1077      C1078   1.430       .  A
C1078      C1082   1.521       .  S
C1079      C1084   1.416       .  A
C1079      C1088   1.404       .  A
C1080      F1096   1.382       .  S
C1080      F1097   1.381       .  S
C1080      F1098   1.385       .  S
C1082      F1093   1.383       .  S
C1082      F1094   1.385       .  S
C1082      F1095   1.384       .  S
C1084      C1085   1.409       .  A
C1084      C1089   1.520       .  S
C1085      C1086   1.407       .  A
C1085      H1090   1.083       .  S
C1086      C1087   1.421       .  A
C1087      C1088   1.412       .  A
C1087      C1091   1.518       .  S
C1088      H1092   1.083       .  S
C1089      F1102   1.385       .  S
C1089      F1103   1.382       .  S
C1089      F1104   1.381       .  S
C1091      F1099   1.383       .  S
C1091      F1100   1.384       .  S
C1091      F1101   1.385       .  S
C1105      C1106   1.404       .  A
C1105      C1110   1.414       .  A
C1105      H1115   1.083       .  S
C1106      C1111   1.482       .  S
C1106      C1107   1.411       .  A
C1107      C1108   1.399       .  A
C1107      C1112   1.524       .  S
C1108      C1109   1.409       .  A
C1108      H1113   1.082       .  S
C1109      C1110   1.423       .  A
C1110      C1114   1.517       .  S
C1111      C1116   1.415       .  A
C1111      C1120   1.398       .  A
C1112      F1128   1.382       .  S
C1112      F1129   1.381       .  S
C1112      F1130   1.385       .  S
C1114      F1125   1.385       .  S
C1114      F1126   1.383       .  S
C1114      F1127   1.383       .  S
C1116      C1117   1.411       .  A
C1116      C1121   1.518       .  S
C1117      C1118   1.405       .  A
C1117      H1122   1.083       .  S
C1118      C1119   1.421       .  A
C1119      C1120   1.403       .  A
C1119      C1123   1.520       .  S
C1120      H1124   1.083       .  S
C1121      F1134   1.384       .  S
C1121      F1135   1.382       .  S
C1121      F1136   1.382       .  S
C1123      F1131   1.383       .  S
C1123      F1132   1.382       .  S
C1123      F1133   1.384       .  S
C1137      C1138   1.403       .  A
C1137      C1142   1.413       .  A
C1137      H1147   1.083       .  S
C1138      C1143   1.488       .  S
C1138      C1139   1.414       .  A
C1139      C1140   1.403       .  A
C1139      C1144   1.522       .  S
C1140      C1141   1.407       .  A
C1140      H1145   1.082       .  S
C1141      C1142   1.424       .  A
C1142      C1146   1.519       .  S
C1143      C1148   1.415       .  A
C1143      C1152   1.403       .  A
C1144      F1160   1.382       .  S
C1144      F1161   1.383       .  S
C1144      F1162   1.384       .  S
C1146      F1157   1.384       .  S
C1146      F1158   1.383       .  S
C1146      F1159   1.384       .  S
C1148      C1149   1.406       .  A
C1148      C1153   1.520       .  S
C1149      C1150   1.406       .  A
C1149      H1154   1.083       .  S
C1150      C1151   1.419       .  A
C1151      C1152   1.411       .  A
C1151      C1155   1.518       .  S
C1152      H1156   1.083       .  S
C1153      F1166   1.384       .  S
C1153      F1167   1.382       .  S
C1153      F1168   1.383       .  S
C1155      F1163   1.384       .  S
C1155      F1164   1.383       .  S
C1155      F1165   1.384       .  S
C1169      C1170   1.396       .  A
C1169      C1174   1.405       .  A
C1169      H1179   1.083       .  S
C1170      C1175   1.485       .  S
C1170      C1171   1.413       .  A
C1171      C1172   1.411       .  A
C1171      C1176   1.518       .  S
C1172      C1173   1.409       .  A
C1172      H1177   1.082       .  S
C1173      C1174   1.430       .  A
C1174      C1178   1.523       .  S
C1175      C1180   1.416       .  A
C1175      C1184   1.401       .  A
C1176      F1192   1.383       .  S
C1176      F1193   1.383       .  S
C1176      F1194   1.384       .  S
C1178      F1189   1.383       .  S
C1178      F1190   1.385       .  S
C1178      F1191   1.384       .  S
C1180      C1181   1.405       .  A
C1180      C1185   1.520       .  S
C1181      C1182   1.404       .  A
C1181      H1186   1.083       .  S
C1182      C1183   1.421       .  A
C1183      C1184   1.409       .  A
C1183      C1187   1.519       .  S
C1184      H1188   1.083       .  S
C1185      F1198   1.385       .  S
C1185      F1199   1.382       .  S
C1185      F1200   1.382       .  S
C1187      F1195   1.382       .  S
C1187      F1196   1.384       .  S
C1187      F1197   1.385       .  S
C1201      C1202   1.400       .  A
C1201      C1206   1.409       .  A
C1201      H1211   1.083       .  S
C1202      C1207   1.487   1_665  S
C1202      C1203   1.414       .  A
C1203      C1204   1.408       .  A
C1203      C1208   1.520   1_655  S
C1204      C1205   1.409       .  A
C1204      H1209   1.082       .  S
C1205      C1206   1.426       .  A
C1206      C1210   1.521       .  S
C1207      C1212   1.416       .  A
C1207      C1216   1.398   1_455  A
C1208      F1224   1.382   1_455  S
C1208      F1225   1.382       .  S
C1208      F1226   1.384       .  S
C1210      F1221   1.384       .  S
C1210      F1222   1.384       .  S
C1210      F1223   1.383       .  S
C1212      C1213   1.411       .  A
C1212      C1217   1.520   1_545  S
C1213      C1214   1.406       .  A
C1213      H1218   1.083       .  S
C1214      C1215   1.426       .  A
C1215      C1216   1.408   1_455  A
C1215      C1219   1.520   1_455  S
C1216      H1220   1.083       .  S
C1217      F1230   1.384       .  S
C1217      F1231   1.382       .  S
C1217      F1232   1.382       .  S
C1219      F1227   1.382       .  S
C1219      F1228   1.382       .  S
C1219      F1229   1.385       .  S
