geometry optimzed in LAMMPS
_audit_creation_date              2020-12-01 
_audit_creation_method            'lammps2cif' 
_symmetry_space_group_name_H-M    'P1' 
_symmetry_Int_Tables_number       1 
_symmetry_cell_setting            triclinic 
loop_ 
_symmetry_equiv_pos_as_xyz 
  x,y,z 
_cell_length_a                    41.87632603 
_cell_length_b                    42.07939850312638 
_cell_length_c                    82.77474704516146 
_cell_angle_alpha                 89.82065120715401 
_cell_angle_beta                  90.0899702184291 
_cell_angle_gamma                 89.69273654465756 
loop_ 
_atom_site_label 
_atom_site_type_symbol 
_atom_site_fract_x 
_atom_site_fract_y 
_atom_site_fract_z 
_atom_site_charge 
O1          O  0.09324406  0.12467781  0.79440502    -0.56800
C2          C  0.08623319  0.12260095  0.84514178     0.75800
O3          O  0.00485833  0.16070773  0.81812727    -0.57900
C4          C  0.07418237  0.13443655  0.78352247     0.75800
C5          C  0.02203016  0.06146985  0.81433288     0.78200
Cd6        Cd  0.05103251  0.12381308  0.81550886     1.37500
O7          O  0.10044539  0.12383950  0.83164308    -0.56800
O8          O  0.05144599  0.06562194  0.81161885    -0.55600
C9          C  0.02160512  0.18576461  0.81866087     0.78200
O10         O  0.00585214  0.08629705  0.81736234    -0.58000
O11         O  0.05608226  0.12118445  0.84472567    -0.56400
O12         O  0.04507832  0.13707437  0.78734499    -0.56400
O13         O  0.05155414  0.18178730  0.81817835    -0.52400
O14         O  0.11782103  0.15113301  0.70816500    -0.56800
C15         C  0.11655006  0.15641146  0.65674450     0.75800
O16         O  0.08050046  0.23771844  0.68433930    -0.57900
C17         C  0.10975036  0.17090106  0.71898470     0.75800
C18         C  0.17945375  0.22039895  0.68604984     0.78200
Cd19       Cd  0.11711315  0.19167456  0.68623882     1.37500
O20         O  0.11458535  0.14232678  0.67028389    -0.56800
O21         O  0.17560274  0.19099444  0.68860649    -0.55600
C22         C  0.05526201  0.22117128  0.68376814     0.78200
O23         O  0.15429767  0.23659242  0.68354062    -0.58000
O24         O  0.11933334  0.18631647  0.65711464    -0.56400
O25         O  0.10686273  0.19958829  0.71462730    -0.56400
O26         O  0.05906817  0.19132596  0.68370682    -0.55600
O27         O  0.38094366  0.35059528  0.70551659    -0.56800
C28         C  0.36184218  0.34167929  0.65661091     0.75800
O29         O  0.40289724  0.26037893  0.68548576    -0.57900
C30         C  0.37276271  0.33576530  0.71816321     0.75800
C31         C  0.30539765  0.27687714  0.68703589     0.78200
Cd32       Cd  0.36669499  0.30755545  0.68672639     1.37500
O33         O  0.35975298  0.35591848  0.67003346    -0.56800
O34         O  0.30842307  0.30678611  0.68753842    -0.55600
C35         C  0.42835321  0.27654934  0.68517402     0.78200
O36         O  0.33107878  0.26076202  0.68661473    -0.58000
O37         O  0.36591582  0.31189420  0.65726376    -0.56400
O38         O  0.36012005  0.30884260  0.71613953    -0.56400
O39         O  0.42486520  0.30636708  0.68548197    -0.55600
O40         O  0.39181995  0.36501564  0.79532370    -0.56800
C41         C  0.40005970  0.37804076  0.84433538     0.75800
O42         O  0.48272541  0.33779873  0.81795435    -0.57900
C43         C  0.40888879  0.36900352  0.78287832     0.75800
C44         C  0.46599727  0.43561725  0.81408532     0.78200
Cd45       Cd  0.43574574  0.37410059  0.81477982     1.37500
O46         O  0.38607316  0.37848883  0.83074033    -0.56800
O47         O  0.43612820  0.43225805  0.81558903    -0.55600
C48         C  0.46640066  0.31251302  0.81814345     0.78200
O49         O  0.48229155  0.41023843  0.81292974    -0.58000
O50         O  0.43023810  0.37642246  0.84405196    -0.56400
O51         O  0.43771037  0.37639375  0.78530411    -0.56400
O52         O  0.43650578  0.31609427  0.81703249    -0.55600
O53         O  0.12939307  0.14786996  0.04594297    -0.56800
C54         C  0.11432884  0.15807071  0.09529705     0.75800
O55         O  0.15271898  0.23808776  0.06576284    -0.57900
C56         C  0.12218838  0.16346693  0.03333901     0.75800
C57         C  0.05385609  0.22134883  0.06510626     0.78200
Cd58       Cd  0.11642028  0.19140938  0.06499778     1.37500
O59         O  0.11236958  0.14353771  0.08194198    -0.56800
O60         O  0.05751193  0.19145825  0.06554047    -0.55600
C61         C  0.17827216  0.22183448  0.06663737     0.78200
O62         O  0.07928807  0.23760471  0.06461732    -0.58000
O63         O  0.11672363  0.18800504  0.09454311    -0.56400
O64         O  0.11057131  0.19091794  0.03549374    -0.56400
O65         O  0.17490045  0.19203596  0.06689243    -0.55600
O66         O  0.14235627  0.13915268  0.95592701    -0.56800
C67         C  0.15201748  0.12669966  0.90639837     0.75800
O68         O  0.23115060  0.16544974  0.93422004    -0.57900
C69         C  0.15863298  0.13201445  0.96834243     0.75800
C70         C  0.21458927  0.06675338  0.93531073     0.78200
Cd71       Cd  0.18553513  0.12867858  0.93642463     1.37500
O72         O  0.13789206  0.12191652  0.91971563    -0.56800
O73         O  0.18472303  0.07115200  0.93458174    -0.55600
C74         C  0.21406102  0.19043641  0.93473389     0.78200
O75         O  0.23167604  0.09149462  0.93649435    -0.58000
O76         O  0.18157824  0.13261220  0.90713273    -0.56400
O77         O  0.18674856  0.12202839  0.96585416    -0.56400
O78         O  0.18429641  0.18642240  0.93602894    -0.55600
O79         O  0.33982577  0.37851812  0.95611419    -0.56800
C80         C  0.33092389  0.37665068  0.90476468     0.75800
O81         O  0.25039735  0.34221136  0.93341876    -0.57900
C82         C  0.32077153  0.36986577  0.96716439     0.75800
C83         C  0.26923555  0.44011874  0.93463506     0.78200
Cd84       Cd  0.29721888  0.37766552  0.93484625     1.37500
O85         O  0.34556798  0.37520101  0.91818498    -0.56800
O86         O  0.29905368  0.43550057  0.93544463    -0.55600
C87         C  0.26710883  0.31695873  0.93298157     0.78200
O88         O  0.25195470  0.41548508  0.93403813    -0.58000
O89         O  0.30077170  0.37821638  0.90540293    -0.56400
O90         O  0.29176420  0.36693555  0.96327192    -0.56400
O91         O  0.29710118  0.32041711  0.93284034    -0.55600
O92         O  0.36537767  0.35225698  0.04280573    -0.56800
C93         C  0.36411351  0.34522461  0.09405090     0.75800
O94         O  0.33014391  0.26260531  0.06632138    -0.57900
C95         C  0.35621318  0.33318975  0.03192354     0.75800
C96         C  0.42818131  0.28074450  0.06429613     0.78200
Cd97       Cd  0.36526941  0.31006059  0.06431943     1.37500
O98         O  0.36391102  0.35954715  0.08054725    -0.56800
O99         O  0.42418027  0.31031029  0.06226961    -0.55600
C100        C  0.30433101  0.27852552  0.06683971     0.78200
O101        O  0.40298925  0.26460078  0.06617145    -0.58000
O102        O  0.36481785  0.31519478  0.09355116    -0.56400
O103        O  0.35323105  0.30444971  0.03606664    -0.56400
O104        O  0.30716978  0.30845225  0.06660973    -0.55600
O105        O  0.34392944  0.38277126  0.29468063    -0.56800
C106        C  0.33490880  0.37336785  0.34424382     0.75800
O107        O  0.25345064  0.41092860  0.31409099    -0.57900
C108        C  0.32701257  0.37819769  0.28220608     0.75800
C109        C  0.27073924  0.31226482  0.31451197     0.78200
Cd110      Cd  0.30032405  0.37425804  0.31404780     1.37500
O111        O  0.34931088  0.36966635  0.33091398    -0.56800
O112        O  0.30037010  0.31611609  0.31233391    -0.55600
C113        C  0.26994860  0.43612248  0.31372280     0.78200
O114        O  0.25437254  0.33737824  0.31663099    -0.58000
O115        O  0.30499870  0.37737614  0.34340639    -0.56400
O116        O  0.29830134  0.37022781  0.28455427    -0.56400
O117        O  0.29990167  0.43234806  0.31378637    -0.55600
O118        O  0.35658280  0.39681341  0.20490681    -0.56800
C119        C  0.36626188  0.40934228  0.15573327     0.75800
O120        O  0.33100490  0.48921849  0.18578295    -0.57900
C121        C  0.36299131  0.41230355  0.21757992     0.75800
C122        C  0.42947592  0.46919510  0.18488869     0.78200
Cd123      Cd  0.36689033  0.44145677  0.18615385     1.37500
O124        O  0.36822291  0.39426568  0.16898200    -0.56800
O125        O  0.42539864  0.43943562  0.18427703    -0.55600
C126        C  0.30550484  0.47310661  0.18524358     0.78200
O127        O  0.40443749  0.48612613  0.18614267    -0.58000
O128        O  0.36505007  0.43933585  0.15666790    -0.56400
O129        O  0.37310141  0.44030606  0.21557550    -0.56400
O130        O  0.30894515  0.44328493  0.18517565    -0.55600
O131        O  0.13967551  0.11552409  0.29524590    -0.56800
C132        C  0.15291972  0.12571815  0.34527701     0.75800
O133        O  0.23146427  0.08808455  0.31337963    -0.57900
C134        C  0.15554990  0.12192082  0.28263176     0.75800
C135        C  0.21341036  0.18692387  0.31421898     0.78200
Cd136      Cd  0.18453945  0.12479179  0.31424118     1.37500
O137        O  0.13755635  0.12565433  0.33206565    -0.56800
O138        O  0.18354903  0.18304978  0.31289321    -0.55600
C139        C  0.21494708  0.06289911  0.31354324     0.78200
O140        O  0.23021076  0.16181873  0.31546554    -0.58000
O141        O  0.18304211  0.12582386  0.34413702    -0.56400
O142        O  0.18388903  0.13124559  0.28480388    -0.56400
O143        O  0.18505391  0.06671587  0.31424295    -0.55600
O144        O  0.12815022  0.10071802  0.20570795    -0.56800
C145        C  0.11347874  0.09219532  0.15669534     0.75800
O146        O  0.15295513  0.01103122  0.18606192    -0.57900
C147        C  0.11960478  0.08580187  0.21826576     0.75800
C148        C  0.05471866  0.02697802  0.18518188     0.78200
Cd149      Cd  0.11595426  0.05760398  0.18659260     1.37500
O150        O  0.10832782  0.10591698  0.17005310    -0.56800
O151        O  0.05788208  0.05684653  0.18560419    -0.55600
C152        C  0.17811314  0.02762311  0.18521427     0.78200
O153        O  0.08032952  0.01071035  0.18545741    -0.58000
O154        O  0.11918465  0.06266608  0.15733790    -0.56400
O155        O  0.10800777  0.05845791  0.21607563    -0.56400
O156        O  0.17410866  0.05738697  0.18495935    -0.55600
O157        O  0.38982483  0.37882851  0.45612121    -0.56800
C158        C  0.40099372  0.37036760  0.40586554     0.75800
O159        O  0.48071706  0.40736702  0.43634652    -0.57900
C160        C  0.40711746  0.37573798  0.46861188     0.75800
C161        C  0.46344987  0.30877673  0.43633900     0.78200
Cd162      Cd  0.43402359  0.37116604  0.43647077     1.37500
O163        O  0.38583840  0.37035377  0.41913476    -0.56800
O164        O  0.43345462  0.31274649  0.43655519    -0.55600
C165        C  0.46451020  0.43258676  0.43422270     0.78200
O166        O  0.48011005  0.33386357  0.43598253    -0.58000
O167        O  0.43114052  0.36991337  0.40690355    -0.56400
O168        O  0.43624040  0.36931960  0.46617884    -0.56400
O169        O  0.43464861  0.42911037  0.43303453    -0.55600
O170        O  0.37765972  0.39539903  0.54593815    -0.56800
C171        C  0.36128058  0.40648529  0.59489636     0.75800
O172        O  0.40146338  0.48565387  0.56529925    -0.57900
C173        C  0.36975864  0.41005420  0.53315877     0.75800
C174        C  0.30305398  0.47010700  0.56543470     0.78200
Cd175      Cd  0.36467369  0.43937382  0.56451198     1.37500
O176        O  0.35787399  0.39204414  0.58159250    -0.56800
O177        O  0.30651518  0.44026255  0.56642862    -0.55600
C178        C  0.42669898  0.46893541  0.56634973     0.78200
O179        O  0.32842844  0.48616407  0.56381404    -0.58000
O180        O  0.36619308  0.43609034  0.59403222    -0.56400
O181        O  0.35743667  0.43731855  0.53497243    -0.56400
O182        O  0.42286478  0.43920169  0.56640264    -0.55600
O183        O  0.11384821  0.09577158  0.54424354    -0.56800
C184        C  0.11461326  0.09062162  0.59559640     0.75800
O185        O  0.07789448  0.00877951  0.56885649    -0.57900
C186        C  0.10738554  0.07564045  0.53334816     0.75800
C187        C  0.17640216  0.02610159  0.56641291     0.78200
Cd188      Cd  0.11402968  0.05501575  0.56620415     1.37500
O189        O  0.11321978  0.10471759  0.58203615    -0.56800
O190        O  0.17219086  0.05532727  0.56341141    -0.55600
C191        C  0.05249213  0.02538666  0.56895301     0.78200
O192        O  0.15148710  0.01003546  0.56922799    -0.58000
O193        O  0.11607310  0.06061295  0.59525785    -0.56400
O194        O  0.10532378  0.04694079  0.53776713    -0.56400
O195        O  0.05604996  0.05519540  0.56829570    -0.55600
O196        O  0.09227007  0.12047707  0.45732053    -0.56800
C197        C  0.08585663  0.12203090  0.40644853     0.75800
O198        O  0.00348486  0.08365997  0.43361393    -0.57900
C199        C  0.07377696  0.10958767  0.46808976     0.75800
C200        C  0.01917583  0.18204787  0.43712788     0.78200
Cd201      Cd  0.04987067  0.12003099  0.43604702     1.37500
O202        O  0.10001256  0.12152334  0.42000128    -0.56800
O203        O  0.04860044  0.17797108  0.43996155    -0.55600
C204        C  0.02023084  0.05843635  0.43312833     0.78200
O205        O  0.00339450  0.15715225  0.43406955    -0.58000
O206        O  0.05568059  0.12176294  0.40686100    -0.56400
O207        O  0.04494755  0.10554457  0.46411274    -0.56400
O208        O  0.05020756  0.06206747  0.43343029    -0.55600
C209        C  0.10598160  0.11981403  0.49314616    -0.20300
C210        C  0.08475085  0.10069847  0.48437944    -0.08300
C211        C  0.07260037  0.07301727  0.49153283     0.30500
C212        C  0.08090067  0.06495131  0.50728845    -0.20300
C213        C  0.10099924  0.08455472  0.51639928    -0.08300
C214        C  0.11376029  0.11206088  0.50920231     0.30500
F215        F  0.13375046  0.13120959  0.51759761    -0.18900
H216        H  0.11564642  0.14116860  0.48775618     0.18900
H217        H  0.07084294  0.04361213  0.51252063     0.18900
F218        F  0.05274303  0.05355755  0.48321745    -0.18800
C219        C  0.46231436  0.01626243  0.56828232    -0.20300
C220        C  0.45895012  0.48314623  0.56753116    -0.08300
C221        C  0.48666006  0.46392682  0.56801986     0.30500
C222        C  0.01692486  0.47776082  0.56886865    -0.20300
C223        C  0.02028321  0.01092661  0.56929536    -0.08300
C224        C  0.49254448  0.03007076  0.56923582     0.30500
F225        F  0.49448055  0.06222121  0.56994264    -0.18900
H226        H  0.44147241  0.03160415  0.56809052     0.18900
H227        H  0.03779520  0.46244217  0.56894455     0.18900
F228        F  0.48469219  0.43175252  0.56749403    -0.18800
C229        C  0.24410998  0.46600827  0.56936535    -0.20300
C230        C  0.27090292  0.48497720  0.56609348    -0.08300
C231        C  0.26635093  0.01769940  0.56331238     0.30500
C232        C  0.23559590  0.03083510  0.56352241    -0.20300
C233        C  0.20877889  0.01175114  0.56656263    -0.08300
C234        C  0.21339267  0.47914566  0.56962462     0.30500
F235        F  0.18829753  0.45979948  0.57275197    -0.18900
H236        H  0.24686889  0.44079629  0.57166737     0.18900
H237        H  0.23279362  0.05603754  0.56120004     0.18900
F238        F  0.29145557  0.03701225  0.56017289    -0.18800
C239        C  0.46042921  0.49118184  0.42919449    -0.20300
C240        C  0.47924653  0.46454217  0.43332416    -0.08300
C241        C  0.01174947  0.46906193  0.43690739     0.30500
C242        C  0.02485910  0.99956756  0.43652956    -0.20300
C243        C  0.00594262  0.02625885  0.43266274    -0.08300
C244        C  0.47353703  0.02172192  0.42886527     0.30500
F245        F  0.45452929  0.04669188  0.42473766    -0.18900
H246        H  0.43534471  0.48842517  0.42627256     0.18900
H247        H  0.04987085  0.00235556  0.43959555     0.18900
F248        F  0.03077983  0.44417193  0.44113114    -0.18800
C249        C  0.45840186  0.24958488  0.43483173    -0.20300
C250        C  0.47793497  0.27645952  0.43657448    -0.08300
C251        C  0.01098801  0.27189531  0.43877488     0.30500
C252        C  0.02400157  0.24118302  0.43908022    -0.20300
C253        C  0.00451635  0.21430641  0.43719107    -0.08300
C254        C  0.47142202  0.21886091  0.43513339     0.30500
F255        F  0.45152305  0.19372014  0.43349760    -0.18900
H256        H  0.43284071  0.25231635  0.43319611     0.18900
H257        H  0.04956131  0.23847920  0.44073789     0.18900
F258        F  0.03078829  0.29700240  0.44081932    -0.18800
C259        C  0.35798732  0.40713502  0.50361333    -0.20300
C260        C  0.37627251  0.39704800  0.51692480    -0.08300
C261        C  0.40300916  0.37737317  0.51429616     0.30500
C262        C  0.41219977  0.36950760  0.49855636    -0.20300
C263        C  0.39462660  0.38060663  0.48517295    -0.08300
C264        C  0.36681498  0.39874238  0.48788161     0.30500
F265        F  0.34922502  0.41005365  0.47531851    -0.18900
H266        H  0.33734890  0.42232013  0.50536363     0.18900
H267        H  0.43366338  0.35550340  0.49681912     0.18900
F268        F  0.42161509  0.36762971  0.52683711    -0.18800
C269        C  0.10322221  0.12051956  0.36152409    -0.20300
C270        C  0.13635466  0.12522237  0.36110408    -0.08300
C271        C  0.15296874  0.12881969  0.37582208     0.30500
C272        C  0.13652191  0.12762333  0.39055228    -0.20300
C273        C  0.10332156  0.12293463  0.39089743    -0.08300
C274        C  0.08685446  0.11931756  0.37617622     0.30500
F275        F  0.05487885  0.11424442  0.37585152    -0.18900
H276        H  0.08982807  0.11747290  0.35044023     0.18900
H277        H  0.14977153  0.13057155  0.40169350     0.18900
F278        F  0.18497530  0.13375218  0.37604003    -0.18800
C279        C  0.11763531  0.09529290  0.26378371    -0.20300
C280        C  0.14255764  0.11699404  0.26619390    -0.08300
C281        C  0.15705746  0.13108642  0.25263183     0.30500
C282        C  0.14790393  0.12227183  0.23703786    -0.20300
C283        C  0.12466267  0.09881898  0.23464480    -0.08300
C284        C  0.10891162  0.08600812  0.24817261     0.30500
F285        F  0.08581518  0.06378121  0.24636398    -0.18900
H286        H  0.10604825  0.08415225  0.27401591     0.18900
H287        H  0.16031225  0.13259996  0.22682546     0.18900
F288        F  0.18085160  0.15258294  0.25440349    -0.18800
C289        C  0.23750613  0.03340395  0.18565359    -0.20300
C290        C  0.21062228  0.01352147  0.18472253    -0.08300
C291        C  0.21537929  0.48052854  0.18350603     0.30500
C292        C  0.24628992  0.46784517  0.18356490    -0.20300
C293        C  0.27317400  0.48764126  0.18477478    -0.08300
C294        C  0.26846981  0.02070578  0.18567164     0.30500
F295        F  0.29362272  0.04081066  0.18671829    -0.18900
H296        H  0.23460083  0.05892239  0.18653262     0.18900
H297        H  0.24912276  0.44231544  0.18271399     0.18900
F298        F  0.19027911  0.46041786  0.18222170    -0.18800
C299        C  0.46474170  0.01672206  0.18452147    -0.20300
C300        C  0.46170409  0.48353390  0.18431810    -0.08300
C301        C  0.48960707  0.46464856  0.18383433     0.30500
C302        C  0.01975534  0.47888395  0.18399451    -0.20300
C303        C  0.02272808  0.01210820  0.18452192    -0.08300
C304        C  0.49478665  0.03092608  0.18458957     0.30500
F305        F  0.49630093  0.06313087  0.18488303    -0.18900
H306        H  0.44374554  0.03186161  0.18475593     0.18900
H307        H  0.04081604  0.46382820  0.18381234     0.18900
F308        F  0.48791370  0.43245663  0.18337554    -0.18800
C309        C  0.38540574  0.37158733  0.36054143    -0.20300
C310        C  0.35189247  0.37291968  0.35998437    -0.08300
C311        C  0.33480891  0.37373295  0.37463100     0.30500
C312        C  0.35093678  0.37271233  0.38941957    -0.20300
C313        C  0.38440947  0.37116418  0.39001012    -0.08300
C314        C  0.40158163  0.37089800  0.37536140     0.30500
F315        F  0.43399310  0.37006206  0.37528563    -0.18900
H316        H  0.39918074  0.37120181  0.34947721     0.18900
H317        H  0.33709773  0.37321786  0.40045860     0.18900
F318        F  0.30243118  0.37531634  0.37474339    -0.18800
C319        C  0.27535785  0.49520670  0.31215682    -0.20300
C320        C  0.25550980  0.46839373  0.31323618    -0.08300
C321        C  0.22224619  0.47300335  0.31387951     0.30500
C322        C  0.20938744  0.50375724  0.31378783    -0.20300
C323        C  0.22927673  0.03058747  0.31306069    -0.08300
C324        C  0.26249374  0.02595876  0.31204143     0.30500
F325        F  0.28262793  0.05104934  0.31101824    -0.18900
H326        H  0.30108440  0.49242189  0.31147845     0.18900
H327        H  0.18365673  0.00653871  0.31445293     0.18900
F328        F  0.20208755  0.44791128  0.31477747    -0.18800
C329        C  0.22299609  0.27671830  0.31634089    -0.20300
C330        C  0.25615101  0.28014001  0.31449075    -0.08300
C331        C  0.27504853  0.25257640  0.31253612     0.30500
C332        C  0.26099439  0.22247883  0.31250273    -0.20300
C333        C  0.22785754  0.21906851  0.31430462    -0.08300
C334        C  0.20892159  0.24659808  0.31621980     0.30500
F335        F  0.17683445  0.24450377  0.31821998    -0.18900
H336        H  0.20784571  0.29742739  0.31788190     0.18900
H337        H  0.27613749  0.20176234  0.31096279     0.18900
F338        F  0.30717162  0.25453946  0.31066213    -0.18800
C339        C  0.37332568  0.41262837  0.24720221    -0.20300
C340        C  0.35733923  0.39940680  0.23392606    -0.08300
C341        C  0.33322817  0.37686773  0.23667353     0.30500
C342        C  0.32431036  0.36905284  0.25246369    -0.20300
C343        C  0.33949339  0.38323636  0.26573638    -0.08300
C344        C  0.36461128  0.40460718  0.26297233     0.30500
F345        F  0.37917449  0.41956955  0.27545686    -0.18900
H346        H  0.39180070  0.43018369  0.24537252     0.18900
H347        H  0.30479077  0.35264922  0.25431178     0.18900
F348        F  0.31665541  0.36416967  0.22417173    -0.18800
C349        C  0.36521314  0.34448285  0.12412209    -0.20300
C350        C  0.36389429  0.36215870  0.10969680    -0.08300
C351        C  0.36294623  0.39554942  0.11055654     0.30500
C352        C  0.36359878  0.41069946  0.12557105    -0.20300
C353        C  0.36532168  0.39294372  0.13997368    -0.08300
C354        C  0.36602572  0.35958671  0.13909112     0.30500
F355        F  0.36768387  0.34142240  0.15265122    -0.18900
H356        H  0.36592579  0.31875242  0.12385490     0.18900
H357        H  0.36292934  0.43643388  0.12590121     0.18900
F358        F  0.36159954  0.41362329  0.09696034    -0.18800
C359        C  0.31704662  0.33504914  0.99094577    -0.20300
C360        C  0.33124751  0.36144377  0.98360984    -0.08300
C361        C  0.35421119  0.37890962  0.99218530     0.30500
C362        C  0.36220069  0.37017351  0.00810796    -0.20300
C363        C  0.34810590  0.34336150  0.01531936    -0.08300
C364        C  0.32555549  0.32582589  0.00650193     0.30500
F365        F  0.31100816  0.30005653  0.01303821    -0.18900
H366        H  0.29941289  0.32123182  0.98451473     0.18900
H367        H  0.37956552  0.38398986  0.01468920     0.18900
F368        F  0.36811687  0.40474690  0.98538607    -0.18800
C369        C  0.27317590  0.25812220  0.93226449    -0.20300
C370        C  0.25293631  0.28485372  0.93292713    -0.08300
C371        C  0.21977605  0.28025478  0.93408764     0.30500
C372        C  0.20738038  0.24947749  0.93452263    -0.20300
C373        C  0.22770889  0.22275074  0.93394580    -0.08300
C374        C  0.26082286  0.22741875  0.93280946     0.30500
F375        F  0.28139988  0.20241373  0.93239845    -0.18900
H376        H  0.29885153  0.26091766  0.93147350     0.18900
H377        H  0.18172682  0.24659463  0.93546130     0.18900
F378        F  0.19934032  0.30533245  0.93505003    -0.18800
C379        C  0.26172361  0.03009975  0.93394427    -0.20300
C380        C  0.22851151  0.03433635  0.93488374    -0.08300
C381        C  0.20881843  0.50728352  0.93552125     0.30500
C382        C  0.22221548  0.47681317  0.93528304    -0.20300
C383        C  0.25542998  0.47257216  0.93448734    -0.08300
C384        C  0.27512917  0.99959675  0.93373375     0.30500
F385        F  0.30736670  0.99668155  0.93276361    -0.18900
H386        H  0.27741403  0.05044935  0.93337545     0.18900
H387        H  0.20650447  0.45648118  0.93590304     0.18900
F388        F  0.17659297  0.51011693  0.93664480    -0.18800
C389        C  0.10985228  0.15827685  0.12539464    -0.20300
C390        C  0.11392906  0.14115373  0.11097812    -0.08300
C391        C  0.11793665  0.10798904  0.11178139     0.30500
C392        C  0.11755380  0.09239757  0.12668325    -0.20300
C393        C  0.11322695  0.10942528  0.14109831    -0.08300
C394        C  0.10941677  0.14264917  0.14032853     0.30500
F395        F  0.10555039  0.16012695  0.15395058    -0.18900
H396        H  0.10686291  0.18386200  0.12511953     0.18900
H397        H  0.12080886  0.06684295  0.12691174     0.18900
F398        F  0.12284449  0.09058483  0.09822458    -0.18800
C399        C  0.23794637  0.21699092  0.06737853    -0.20300
C400        C  0.21046460  0.23644299  0.06719442    -0.08300
C401        C  0.21429181  0.26961144  0.06729717     0.30500
C402        C  0.24483906  0.28286374  0.06743492    -0.20300
C403        C  0.27233216  0.26349494  0.06740249    -0.08300
C404        C  0.26856451  0.23026814  0.06744232     0.30500
F405        F  0.29432126  0.21053877  0.06736691    -0.18900
H406        H  0.23578785  0.19136281  0.06730335     0.18900
H407        H  0.24691156  0.30849440  0.06738850     0.18900
F408        F  0.18858754  0.28938223  0.06713516    -0.18800
C409        C  0.01849811  0.26945913  0.06288856    -0.20300
C410        C  0.02163653  0.23644830  0.06507582    -0.08300
C411        C  0.49373317  0.21826773  0.06712116     0.30500
C412        C  0.46360635  0.23285439  0.06682354    -0.20300
C413        C  0.46045233  0.26582332  0.06452875    -0.08300
C414        C  0.48835054  0.28405936  0.06261186     0.30500
F415        F  0.48666645  0.31602145  0.06047897    -0.18900
H416        H  0.03946925  0.28409015  0.06131247     0.18900
H417        H  0.44264979  0.21821075  0.06842575     0.18900
F418        F  0.49539248  0.18638352  0.06953293    -0.18800
C419        C  0.11084578  0.16333087  0.00376475    -0.20300
C420        C  0.12839686  0.15128795  0.01691379    -0.08300
C421        C  0.15400535  0.13034162  0.01397186     0.30500
C422        C  0.16294693  0.12320557  0.99811512    -0.20300
C423        C  0.14621952  0.13631507  0.98492791    -0.08300
C424        C  0.11936538  0.15567536  0.98791387     0.30500
F425        F  0.10231911  0.16862535  0.97555908    -0.18900
H426        H  0.09098048  0.17941382  0.00575361     0.18900
H427        H  0.18361760  0.10813809  0.99615944     0.18900
F428        F  0.17176729  0.11845247  0.02634466    -0.18800
C429        C  0.34878330  0.37607994  0.85977863    -0.20300
C430        C  0.38221922  0.37869032  0.85975363    -0.08300
C431        C  0.39843134  0.38082981  0.87462532     0.30500
C432        C  0.38155380  0.37981567  0.88913519    -0.20300
C433        C  0.34819367  0.37699404  0.88919597    -0.08300
C434        C  0.33184441  0.37522470  0.87432797     0.30500
F435        F  0.29958172  0.37233509  0.87378611    -0.18900
H436        H  0.33570797  0.37432444  0.84851773     0.18900
H437        H  0.39470383  0.38151405  0.90037328     0.18900
F438        F  0.43063534  0.38407036  0.87523030    -0.18800
C439        C  0.35924627  0.34112807  0.62651147    -0.20300
C440        C  0.36005689  0.35863485  0.64093762    -0.08300
C441        C  0.36004107  0.39204590  0.64008092     0.30500
C442        C  0.36011447  0.40738691  0.62507018    -0.20300
C443        C  0.35990513  0.38982633  0.61064613    -0.08300
C444        C  0.35903545  0.35645461  0.61152101     0.30500
F445        F  0.35863375  0.33850244  0.59792811    -0.18900
H446        H  0.35904575  0.31539158  0.62680087     0.18900
H447        H  0.36056139  0.43312167  0.62475381     0.18900
F448        F  0.36060458  0.40996049  0.65368644    -0.18800
C449        C  0.36119050  0.33702866  0.74768228    -0.20300
C450        C  0.37898914  0.34824564  0.73449727    -0.08300
C451        C  0.40474505  0.36881158  0.73732238     0.30500
C452        C  0.41355078  0.37643208  0.75312016    -0.20300
C453        C  0.39654732  0.36419481  0.76634783    -0.08300
C454        C  0.36961079  0.34517726  0.76348203     0.30500
F455        F  0.35250970  0.33291107  0.77592109    -0.18900
H456        H  0.34124636  0.32122924  0.74577498     0.18900
H457        H  0.43427855  0.39120326  0.75501576     0.18900
F458        F  0.42275418  0.37988647  0.72491931    -0.18800
C459        C  0.11318388  0.15662076  0.62668611    -0.20300
C460        C  0.11553258  0.13928527  0.64120009    -0.08300
C461        C  0.11685731  0.10593308  0.64055941     0.30500
C462        C  0.11652543  0.09046269  0.62566940    -0.20300
C463        C  0.11455918  0.10779732  0.61114133    -0.08300
C464        C  0.11250994  0.14112763  0.61179414     0.30500
F465        F  0.10977945  0.15882365  0.59811772    -0.18900
H466        H  0.11173428  0.18233050  0.62683672     0.18900
H467        H  0.11789273  0.06474967  0.62554430     0.18900
F468        F  0.11882790  0.08819024  0.65425074    -0.18800
C469        C  0.49582844  0.21592675  0.68280404    -0.20300
C470        C  0.02289290  0.23556551  0.68356422    -0.08300
C471        C  0.01847870  0.26862338  0.68473869     0.30500
C472        C  0.48769822  0.28156094  0.68520478    -0.20300
C473        C  0.46062146  0.26195651  0.68452724    -0.08300
C474        C  0.46500041  0.22889001  0.68327911     0.30500
F475        F  0.43962258  0.20901720  0.68252358    -0.18900
H476        H  0.49847727  0.19038068  0.68194350     0.18900
H477        H  0.48510866  0.30710073  0.68620011     0.18900
F478        F  0.04380785  0.28853538  0.68563817    -0.18800
C479        C  0.23899605  0.21553173  0.68768921    -0.20300
C480        C  0.21165859  0.23488880  0.68611164    -0.08300
C481        C  0.21555057  0.26798860  0.68481837     0.30500
C482        C  0.24605343  0.28126745  0.68521117    -0.20300
C483        C  0.27339521  0.26197088  0.68679818    -0.08300
C484        C  0.26956894  0.22883122  0.68800616     0.30500
F485        F  0.29523023  0.20923311  0.68964536    -0.18900
H486        H  0.23674756  0.18998022  0.68870511     0.18900
H487        H  0.24822835  0.30682588  0.68420851     0.18900
F488        F  0.18994174  0.28768617  0.68330998    -0.18800
C489        C  0.15124736  0.13355961  0.87646355    -0.20300
C490        C  0.13511149  0.12541668  0.89075771    -0.08300
C491        C  0.10298388  0.11602478  0.88986009     0.30500
C492        C  0.08744607  0.11495147  0.87495425    -0.20300
C493        C  0.10355583  0.12308889  0.86066894    -0.08300
C494        C  0.13568764  0.13246018  0.86154260     0.30500
F495        F  0.15188495  0.14128410  0.84807740    -0.18900
H496        H  0.17596544  0.14103439  0.87682237     0.18900
H497        H  0.06267510  0.10765122  0.87460365     0.18900
F498        F  0.08652857  0.10773569  0.90333190    -0.18800
C499        C  0.02721135  0.24500708  0.81960507    -0.20300
C500        C  0.00732912  0.21812143  0.81947364    -0.08300
C501        C  0.47403768  0.22272344  0.81962905     0.30500
C502        C  0.46113063  0.25344371  0.81948391    -0.20300
C503        C  0.48096278  0.28032332  0.81926205    -0.08300
C504        C  0.01427889  0.27578011  0.81957670     0.30500
F505        F  0.03441791  0.30095081  0.81964569    -0.18900
H506        H  0.05297791  0.24225415  0.81956266     0.18900
H507        H  0.43536011  0.25614340  0.81935552     0.18900
F508        F  0.45383336  0.19761900  0.81971207    -0.18800
C509        C  0.46227413  0.49422084  0.81826744    -0.20300
C510        C  0.48068934  0.46762229  0.81386061    -0.08300
C511        C  0.01278680  0.47217283  0.80941475     0.30500
C512        C  0.02598511  0.50271532  0.80951490    -0.20300
C513        C  0.00756198  0.02930508  0.81404877    -0.08300
C514        C  0.47547250  0.02465559  0.81845423     0.30500
F515        F  0.45682872  0.04939551  0.82318199    -0.18900
H516        H  0.43752632  0.99145437  0.82180515     0.18900
H517        H  0.05075592  0.50553522  0.80602853     0.18900
F518        F  0.03136355  0.44726023  0.80482410    -0.18800
C519        C  0.10746147  0.12562007  0.75877630    -0.20300
C520        C  0.08490661  0.14375877  0.76730320    -0.08300
C521        C  0.07175327  0.17110038  0.76010119     0.30500
C522        C  0.08078390  0.18000267  0.74457251    -0.20300
C523        C  0.10248315  0.16143199  0.73573707    -0.08300
C524        C  0.11584946  0.13408386  0.74293592     0.30500
F525        F  0.13706663  0.11577085  0.73474280    -0.18900
H526        H  0.11782655  0.10451236  0.76419846     0.18900
H527        H  0.07011444  0.20111468  0.73929108     0.18900
F528        F  0.05037127  0.18948668  0.76818353    -0.18800
O529        O  0.09324405  0.62467788  0.79440502    -0.56800
C530        C  0.08623323  0.62260098  0.84514178     0.75800
O531        O  0.00485830  0.66070778  0.81812727    -0.57900
C532        C  0.07418237  0.63443662  0.78352247     0.75800
C533        C  0.02203022  0.56146991  0.81433289     0.78200
Cd534      Cd  0.05103251  0.62381314  0.81550886     1.37500
O535        O  0.10044547  0.62383960  0.83164309    -0.56800
O536        O  0.05144604  0.56562203  0.81161884    -0.55600
C537        C  0.02160513  0.68576464  0.81866087     0.78200
O538        O  0.00585217  0.58629711  0.81736234    -0.58000
O539        O  0.05608232  0.62118433  0.84472565    -0.56400
O540        O  0.04507832  0.63707445  0.78734499    -0.56400
O541        O  0.05155414  0.68178727  0.81817835    -0.52400
O542        O  0.11782105  0.65113293  0.70816499    -0.56800
C543        C  0.11655016  0.65641147  0.65674449     0.75800
O544        O  0.08050044  0.73771847  0.68433929    -0.57900
C545        C  0.10975030  0.67090096  0.71898470     0.75800
C546        C  0.17945375  0.72039895  0.68604984     0.78200
Cd547      Cd  0.11711314  0.69167460  0.68623882     1.37500
O548        O  0.11458554  0.64232681  0.67028390    -0.56800
O549        O  0.17560275  0.69099446  0.68860650    -0.55600
C550        C  0.05526200  0.72117129  0.68376815     0.78200
O551        O  0.15429766  0.73659241  0.68354061    -0.58000
O552        O  0.11933330  0.68631649  0.65711463    -0.56400
O553        O  0.10686253  0.69958817  0.71462730    -0.56400
O554        O  0.05906818  0.69132597  0.68370682    -0.55600
O555        O  0.38094365  0.85059532  0.70551659    -0.56800
C556        C  0.36184218  0.84167929  0.65661091     0.75800
O557        O  0.40289726  0.76037884  0.68548576    -0.57900
C558        C  0.37276266  0.83576535  0.71816320     0.75800
C559        C  0.30539763  0.77687721  0.68703589     0.78200
Cd560      Cd  0.36669499  0.80755535  0.68672639     1.37500
O561        O  0.35975296  0.85591842  0.67003347    -0.56800
O562        O  0.30842306  0.80678617  0.68753842    -0.55600
C563        C  0.42835320  0.77654930  0.68517400     0.78200
O564        O  0.33107875  0.76076207  0.68661473    -0.58000
O565        O  0.36591583  0.81189419  0.65726375    -0.56400
O566        O  0.36012004  0.80884264  0.71613952    -0.56400
O567        O  0.42486516  0.80636702  0.68548197    -0.55600
O568        O  0.39181996  0.86501551  0.79532366    -0.56800
C569        C  0.40005969  0.87804075  0.84433538     0.75800
O570        O  0.48272536  0.83779865  0.81795435    -0.57900
C571        C  0.40888878  0.86900355  0.78287829     0.75800
C572        C  0.46599716  0.93561719  0.81408532     0.78200
Cd573      Cd  0.43574571  0.87410046  0.81477981     1.37500
O574        O  0.38607315  0.87848868  0.83074033    -0.56800
O575        O  0.43612811  0.93225796  0.81558904    -0.55600
C576        C  0.46640059  0.81251295  0.81814346     0.78200
O577        O  0.48229144  0.91023836  0.81292973    -0.58000
O578        O  0.43023810  0.87642255  0.84405196    -0.56400
O579        O  0.43771034  0.87639383  0.78530410    -0.56400
O580        O  0.43650572  0.81609417  0.81703249    -0.55600
O581        O  0.12939306  0.64787000  0.04594297    -0.56800
C582        C  0.11432883  0.65807068  0.09529704     0.75800
O583        O  0.15271902  0.73808764  0.06576272    -0.57900
C584        C  0.12218843  0.66346700  0.03333901     0.75800
C585        C  0.05385613  0.72134877  0.06510626     0.78200
Cd586      Cd  0.11642041  0.69140941  0.06499778     1.37500
O587        O  0.11236959  0.64353774  0.08194197    -0.56800
O588        O  0.05751194  0.69145818  0.06554047    -0.55600
C589        C  0.17827219  0.72183437  0.06663737     0.78200
O590        O  0.07928810  0.73760462  0.06461732    -0.58000
O591        O  0.11672363  0.68800503  0.09454313    -0.56400
O592        O  0.11057151  0.69091807  0.03549374    -0.56400
O593        O  0.17490050  0.69203584  0.06689255    -0.55600
O594        O  0.14235627  0.63915275  0.95592701    -0.56800
C595        C  0.15201753  0.62669973  0.90639837     0.75800
O596        O  0.23115059  0.66544977  0.93422004    -0.57900
C597        C  0.15863298  0.63201452  0.96834243     0.75800
C598        C  0.21458924  0.56675325  0.93531075     0.78200
Cd599      Cd  0.18553515  0.62867862  0.93642463     1.37500
O600        O  0.13789215  0.62191657  0.91971564    -0.56800
O601        O  0.18472302  0.57115189  0.93458174    -0.55600
C602        C  0.21406102  0.69043643  0.93473389     0.78200
O603        O  0.23167602  0.59149450  0.93649435    -0.58000
O604        O  0.18157830  0.63261230  0.90713271    -0.56400
O605        O  0.18674856  0.62202847  0.96585416    -0.56400
O606        O  0.18429641  0.68642245  0.93602894    -0.55600
O607        O  0.33982579  0.87851801  0.95611418    -0.56800
C608        C  0.33092389  0.87665070  0.90476468     0.75800
O609        O  0.25039741  0.84221130  0.93341877    -0.57900
C610        C  0.32077151  0.86986579  0.96716439     0.75800
C611        C  0.26923554  0.94011876  0.93463506     0.78200
Cd612      Cd  0.29721887  0.87766555  0.93484625     1.37500
O613        O  0.34556797  0.87520109  0.91818498    -0.56800
O614        O  0.29905367  0.93550053  0.93544463    -0.55600
C615        C  0.26710888  0.81695867  0.93298157     0.78200
O616        O  0.25195466  0.91548511  0.93403813    -0.58000
O617        O  0.30077169  0.87821646  0.90540292    -0.56400
O618        O  0.29176417  0.86693565  0.96327192    -0.56400
O619        O  0.29710123  0.82041708  0.93284034    -0.55600
O620        O  0.36537766  0.85225688  0.04280572    -0.56800
C621        C  0.36411356  0.84522468  0.09405086     0.75800
O622        O  0.33014400  0.76260535  0.06632138    -0.57900
C623        C  0.35621318  0.83318969  0.03192353     0.75800
C624        C  0.42818130  0.78074440  0.06429613     0.78200
Cd625      Cd  0.36526942  0.81006064  0.06431943     1.37500
O626        O  0.36391121  0.85954722  0.08054720    -0.56800
O627        O  0.42418030  0.81031019  0.06226961    -0.55600
C628        C  0.30433109  0.77852551  0.06683972     0.78200
O629        O  0.40298921  0.76460074  0.06617146    -0.58000
O630        O  0.36481781  0.81519486  0.09355114    -0.56400
O631        O  0.35323104  0.80444962  0.03606662    -0.56400
O632        O  0.30716981  0.80845226  0.06660974    -0.55600
O633        O  0.34392943  0.88277132  0.29468063    -0.56800
C634        C  0.33490879  0.87336788  0.34424379     0.75800
O635        O  0.25345065  0.91092862  0.31409099    -0.57900
C636        C  0.32701256  0.87819778  0.28220608     0.75800
C637        C  0.27073922  0.81226480  0.31451193     0.78200
Cd638      Cd  0.30032405  0.87425795  0.31404779     1.37500
O639        O  0.34931090  0.86966619  0.33091397    -0.56800
O640        O  0.30037009  0.81611601  0.31233389    -0.55600
C641        C  0.26994859  0.93612251  0.31372280     0.78200
O642        O  0.25437254  0.83737824  0.31663097    -0.58000
O643        O  0.30499871  0.87737624  0.34340634    -0.56400
O644        O  0.29830134  0.87022788  0.28455427    -0.56400
O645        O  0.29990165  0.93234810  0.31378637    -0.55600
O646        O  0.35658284  0.89681338  0.20490681    -0.56800
C647        C  0.36626192  0.90934229  0.15573324     0.75800
O648        O  0.33100489  0.98921856  0.18578294    -0.57900
C649        C  0.36299129  0.91230356  0.21757991     0.75800
C650        C  0.42947592  0.96919516  0.18488866     0.78200
Cd651      Cd  0.36689033  0.94145683  0.18615384     1.37500
O652        O  0.36822287  0.89426575  0.16898199    -0.56800
O653        O  0.42539862  0.93943569  0.18427693    -0.55600
C654        C  0.30550483  0.97310668  0.18524358     0.78200
O655        O  0.40443749  0.98612619  0.18614268    -0.58000
O656        O  0.36505027  0.93933588  0.15666784    -0.56400
O657        O  0.37310137  0.94030607  0.21557548    -0.56400
O658        O  0.30894515  0.94328500  0.18517565    -0.55600
O659        O  0.13967549  0.61552394  0.29524589    -0.56800
C660        C  0.15291971  0.62571813  0.34527700     0.75800
O661        O  0.23146423  0.58808460  0.31337962    -0.57900
C662        C  0.15554984  0.62192073  0.28263175     0.75800
C663        C  0.21341034  0.68692394  0.31421898     0.78200
Cd664      Cd  0.18453943  0.62479184  0.31424111     1.37500
O665        O  0.13755635  0.62565420  0.33206564    -0.56800
O666        O  0.18354902  0.68304985  0.31289320    -0.55600
C667        C  0.21494711  0.56289912  0.31354324     0.78200
O668        O  0.23021075  0.66181879  0.31546553    -0.58000
O669        O  0.18304210  0.62582396  0.34413700    -0.56400
O670        O  0.18388894  0.63124564  0.28480386    -0.56400
O671        O  0.18505392  0.56671582  0.31424295    -0.55600
O672        O  0.12815016  0.60071802  0.20570790    -0.56800
C673        C  0.11347879  0.59219534  0.15669535     0.75800
O674        O  0.15295518  0.51103117  0.18606192    -0.57900
C675        C  0.11960470  0.58580188  0.21826572     0.75800
C676        C  0.05471864  0.52697798  0.18518187     0.78200
Cd677      Cd  0.11595427  0.55760388  0.18659260     1.37500
O678        O  0.10832779  0.60591700  0.17005310    -0.56800
O679        O  0.05788205  0.55684648  0.18560419    -0.55600
C680        C  0.17811318  0.52762309  0.18521427     0.78200
O681        O  0.08032952  0.51071033  0.18545741    -0.58000
O682        O  0.11918485  0.56266613  0.15733791    -0.56400
O683        O  0.10800774  0.55845793  0.21607560    -0.56400
O684        O  0.17410867  0.55738696  0.18495935    -0.55600
O685        O  0.38982483  0.87882858  0.45612121    -0.56800
C686        C  0.40099372  0.87036768  0.40586554     0.75800
O687        O  0.48071703  0.90736696  0.43634662    -0.57900
C688        C  0.40711745  0.87573806  0.46861188     0.75800
C689        C  0.46344986  0.80877677  0.43633900     0.78200
Cd690      Cd  0.43402358  0.87116610  0.43647077     1.37500
O691        O  0.38583839  0.87035385  0.41913476    -0.56800
O692        O  0.43345461  0.81274654  0.43655519    -0.55600
C693        C  0.46451020  0.93258673  0.43422273     0.78200
O694        O  0.48011004  0.83386361  0.43598253    -0.58000
O695        O  0.43114052  0.86991345  0.40690355    -0.56400
O696        O  0.43624040  0.86931968  0.46617884    -0.56400
O697        O  0.43464862  0.92911039  0.43303452    -0.55600
O698        O  0.37765971  0.89539894  0.54593816    -0.56800
C699        C  0.36128056  0.90648528  0.59489636     0.75800
O700        O  0.40146338  0.98565392  0.56529925    -0.57900
C701        C  0.36975864  0.91005411  0.53315877     0.75800
C702        C  0.30305397  0.97010703  0.56543466     0.78200
Cd703      Cd  0.36467368  0.93937387  0.56451198     1.37500
O704        O  0.35787397  0.89204416  0.58159249    -0.56800
O705        O  0.30651519  0.94026262  0.56642860    -0.55600
C706        C  0.42669899  0.96893542  0.56634973     0.78200
O707        O  0.32842842  0.98616415  0.56381402    -0.58000
O708        O  0.36619309  0.93609031  0.59403223    -0.56400
O709        O  0.35743666  0.93731845  0.53497243    -0.56400
O710        O  0.42286477  0.93920173  0.56640264    -0.55600
O711        O  0.11384820  0.59577166  0.54424354    -0.56800
C712        C  0.11461326  0.59062154  0.59559641     0.75800
O713        O  0.07789453  0.50877938  0.56885649    -0.57900
C714        C  0.10738553  0.57564053  0.53334816     0.75800
C715        C  0.17640215  0.52610156  0.56641292     0.78200
Cd716      Cd  0.11402967  0.55501579  0.56620415     1.37500
O717        O  0.11321978  0.60471758  0.58203616    -0.56800
O718        O  0.17219087  0.55532725  0.56341140    -0.55600
C719        C  0.05249217  0.52538651  0.56895300     0.78200
O720        O  0.15148708  0.51003547  0.56922800    -0.58000
O721        O  0.11607309  0.56061290  0.59525784    -0.56400
O722        O  0.10532377  0.54694087  0.53776713    -0.56400
O723        O  0.05604998  0.55519525  0.56829570    -0.55600
O724        O  0.09227003  0.62047713  0.45732054    -0.56800
C725        C  0.08585662  0.62203098  0.40644853     0.75800
O726        O  0.00348482  0.58365992  0.43361393    -0.57900
C727        C  0.07377696  0.60958766  0.46808976     0.75800
C728        C  0.01917585  0.68204786  0.43712788     0.78200
Cd729      Cd  0.04987065  0.62003090  0.43604702     1.37500
O730        O  0.10001256  0.62152340  0.42000128    -0.56800
O731        O  0.04860043  0.67797099  0.43996155    -0.55600
C732        C  0.02023084  0.55843634  0.43312832     0.78200
O733        O  0.00339446  0.65715228  0.43406954    -0.58000
O734        O  0.05568059  0.62176300  0.40686100    -0.56400
O735        O  0.04494757  0.60554443  0.46411273    -0.56400
O736        O  0.05020756  0.56206748  0.43343029    -0.55600
C737        C  0.10598158  0.61981408  0.49314615    -0.20300
C738        C  0.08475085  0.60069845  0.48437943    -0.08300
C739        C  0.07260035  0.57301727  0.49153283     0.30500
C740        C  0.08090064  0.56495136  0.50728846    -0.20300
C741        C  0.10099923  0.58455479  0.51639928    -0.08300
C742        C  0.11376027  0.61206095  0.50920230     0.30500
F743        F  0.13375045  0.63120967  0.51759761    -0.18900
H744        H  0.11564633  0.64116856  0.48775619     0.18900
H745        H  0.07084295  0.54361222  0.51252065     0.18900
F746        F  0.05274306  0.55355745  0.48321746    -0.18800
C747        C  0.46231429  0.51626245  0.56828233    -0.20300
C748        C  0.45895010  0.98314629  0.56753116    -0.08300
C749        C  0.48666006  0.96392686  0.56801988     0.30500
C750        C  0.01692485  0.97776093  0.56886872    -0.20300
C751        C  0.02028323  0.51092650  0.56929534    -0.08300
C752        C  0.49254452  0.53007068  0.56923582     0.30500
F753        F  0.49448056  0.56222112  0.56994265    -0.18900
H754        H  0.44147283  0.53160383  0.56809056     0.18900
H755        H  0.03779523  0.96244228  0.56894468     0.18900
F756        F  0.48469218  0.93175258  0.56749403    -0.18800
C757        C  0.24410999  0.96600810  0.56936535    -0.20300
C758        C  0.27090291  0.98497724  0.56609345    -0.08300
C759        C  0.26635093  0.51769944  0.56331238     0.30500
C760        C  0.23559591  0.53083494  0.56352242    -0.20300
C761        C  0.20877888  0.51175115  0.56656263    -0.08300
C762        C  0.21339267  0.97914571  0.56962461     0.30500
F763        F  0.18829751  0.95979953  0.57275197    -0.18900
H764        H  0.24686877  0.94079713  0.57166724     0.18900
H765        H  0.23279352  0.55603828  0.56119996     0.18900
F766        F  0.29145556  0.53701230  0.56017290    -0.18800
C767        C  0.46042912  0.99118179  0.42919446    -0.20300
C768        C  0.47924661  0.96454211  0.43332417    -0.08300
C769        C  0.01174947  0.96906189  0.43690742     0.30500
C770        C  0.02485916  0.49956758  0.43652948    -0.20300
C771        C  0.00594265  0.52625885  0.43266272    -0.08300
C772        C  0.47353699  0.52172193  0.42886528     0.30500
F773        F  0.45452923  0.54669186  0.42473776    -0.18900
H774        H  0.43534539  0.98842517  0.42627261     0.18900
H775        H  0.04987094  0.50235557  0.43959541     0.18900
F776        F  0.03077982  0.94417194  0.44113126    -0.18800
C777        C  0.45840184  0.74958493  0.43483173    -0.20300
C778        C  0.47793498  0.77645955  0.43657449    -0.08300
C779        C  0.01098802  0.77189534  0.43877488     0.30500
C780        C  0.02400178  0.74118301  0.43908022    -0.20300
C781        C  0.00451636  0.71430643  0.43719107    -0.08300
C782        C  0.47142202  0.71886096  0.43513337     0.30500
F783        F  0.45152305  0.69372022  0.43349749    -0.18900
H784        H  0.43284080  0.75231643  0.43319610     0.18900
H785        H  0.04956054  0.73847928  0.44073783     0.18900
F786        F  0.03078830  0.79700245  0.44081932    -0.18800
C787        C  0.35798733  0.90713491  0.50361331    -0.20300
C788        C  0.37627245  0.89704790  0.51692480    -0.08300
C789        C  0.40300914  0.87737309  0.51429615     0.30500
C790        C  0.41219970  0.86950766  0.49855636    -0.20300
C791        C  0.39462663  0.88060669  0.48517294    -0.08300
C792        C  0.36681496  0.89874243  0.48788158     0.30500
F793        F  0.34922506  0.91005371  0.47531845    -0.18900
H794        H  0.33734855  0.92232027  0.50536366     0.18900
H795        H  0.43366371  0.85550324  0.49681908     0.18900
F796        F  0.42161511  0.86762975  0.52683711    -0.18800
C797        C  0.10322220  0.62051944  0.36152409    -0.20300
C798        C  0.13635465  0.62522228  0.36110407    -0.08300
C799        C  0.15296874  0.62881969  0.37582206     0.30500
C800        C  0.13652193  0.62762327  0.39055226    -0.20300
C801        C  0.10332156  0.62293468  0.39089743    -0.08300
C802        C  0.08685445  0.61931760  0.37617622     0.30500
F803        F  0.05487883  0.61424450  0.37585152    -0.18900
H804        H  0.08982810  0.61747277  0.35044026     0.18900
H805        H  0.14977163  0.63057145  0.40169353     0.18900
F806        F  0.18497528  0.63375227  0.37603994    -0.18800
C807        C  0.11763524  0.59529285  0.26378369    -0.20300
C808        C  0.14255761  0.61699393  0.26619388    -0.08300
C809        C  0.15705747  0.63108627  0.25263183     0.30500
C810        C  0.14790393  0.62227172  0.23703786    -0.20300
C811        C  0.12466262  0.59881896  0.23464477    -0.08300
C812        C  0.10891159  0.58600803  0.24817258     0.30500
F813        F  0.08581520  0.56378108  0.24636396    -0.18900
H814        H  0.10604813  0.58415226  0.27401586     0.18900
H815        H  0.16031233  0.63259988  0.22682542     0.18900
F816        F  0.18085161  0.65258279  0.25440349    -0.18800
C817        C  0.23750617  0.53340377  0.18565358    -0.20300
C818        C  0.21062230  0.51352146  0.18472251    -0.08300
C819        C  0.21537928  0.98052856  0.18350610     0.30500
C820        C  0.24628991  0.96784533  0.18356492    -0.20300
C821        C  0.27317400  0.98764132  0.18477478    -0.08300
C822        C  0.26846981  0.52070572  0.18567164     0.30500
F823        F  0.29362273  0.54081055  0.18671829    -0.18900
H824        H  0.23460077  0.55892309  0.18653266     0.18900
H825        H  0.24912283  0.94231496  0.18271396     0.18900
F826        F  0.19027910  0.96041792  0.18222171    -0.18800
C827        C  0.46474169  0.51672201  0.18452146    -0.20300
C828        C  0.46170409  0.98353396  0.18431810    -0.08300
C829        C  0.48960708  0.96464862  0.18383433     0.30500
C830        C  0.01975535  0.97888401  0.18399451    -0.20300
C831        C  0.02272808  0.51210812  0.18452192    -0.08300
C832        C  0.49478666  0.53092601  0.18458957     0.30500
F833        F  0.49630094  0.56313080  0.18488303    -0.18900
H834        H  0.44374556  0.53186156  0.18475593     0.18900
H835        H  0.04081600  0.96382829  0.18381234     0.18900
F836        F  0.48791370  0.93245670  0.18337554    -0.18800
C837        C  0.38540570  0.87158742  0.36054147    -0.20300
C838        C  0.35189247  0.87291977  0.35998435    -0.08300
C839        C  0.33480891  0.87373300  0.37463099     0.30500
C840        C  0.35093674  0.87271239  0.38941960    -0.20300
C841        C  0.38440949  0.87116426  0.39001012    -0.08300
C842        C  0.40158166  0.87089808  0.37536140     0.30500
F843        F  0.43399313  0.87006214  0.37528563    -0.18900
H844        H  0.39918106  0.87120188  0.34947697     0.18900
H845        H  0.33709802  0.87321783  0.40045838     0.18900
F846        F  0.30243117  0.87531619  0.37474338    -0.18800
C847        C  0.27535779  0.99520671  0.31215682    -0.20300
C848        C  0.25550973  0.96839374  0.31323618    -0.08300
C849        C  0.22224613  0.97300331  0.31387951     0.30500
C850        C  0.20938724  0.00375722  0.31378783    -0.20300
C851        C  0.22927679  0.53058749  0.31306069    -0.08300
C852        C  0.26249381  0.52595877  0.31204143     0.30500
F853        F  0.28262794  0.55104938  0.31101824    -0.18900
H854        H  0.30108432  0.99242190  0.31147846     0.18900
H855        H  0.18365626  0.50653881  0.31445295     0.18900
F856        F  0.20208753  0.94791118  0.31477746    -0.18800
C857        C  0.22299614  0.77671822  0.31634088    -0.20300
C858        C  0.25615097  0.78014004  0.31449074    -0.08300
C859        C  0.27504854  0.75257641  0.31253612     0.30500
C860        C  0.26099433  0.72247893  0.31250274    -0.20300
C861        C  0.22785755  0.71906852  0.31430462    -0.08300
C862        C  0.20892157  0.74659812  0.31621980     0.30500
F863        F  0.17683443  0.74450383  0.31821998    -0.18900
H864        H  0.20784538  0.79742782  0.31788193     0.18900
H865        H  0.27613779  0.70176198  0.31096276     0.18900
F866        F  0.30717162  0.75453952  0.31066213    -0.18800
C867        C  0.37332572  0.91262848  0.24720217    -0.20300
C868        C  0.35733918  0.89940680  0.23392603    -0.08300
C869        C  0.33322818  0.87686767  0.23667350     0.30500
C870        C  0.32431035  0.86905288  0.25246368    -0.20300
C871        C  0.33949338  0.88323644  0.26573636    -0.08300
C872        C  0.36461126  0.90460725  0.26297231     0.30500
F873        F  0.37917448  0.91956963  0.27545684    -0.18900
H874        H  0.39180032  0.93018336  0.24537250     0.18900
H875        H  0.30479070  0.85264923  0.25431179     0.18900
F876        F  0.31665546  0.86416955  0.22417167    -0.18800
C877        C  0.36521312  0.84448288  0.12412206    -0.20300
C878        C  0.36389432  0.86215875  0.10969677    -0.08300
C879        C  0.36294642  0.89554943  0.11055652     0.30500
C880        C  0.36359897  0.91069959  0.12557104    -0.20300
C881        C  0.36532171  0.89294371  0.13997366    -0.08300
C882        C  0.36602570  0.85958672  0.13909109     0.30500
F883        F  0.36768386  0.84142241  0.15265116    -0.18900
H884        H  0.36592575  0.81875238  0.12385486     0.18900
H885        H  0.36292965  0.93643326  0.12590120     0.18900
F886        F  0.36159978  0.91362335  0.09696035    -0.18800
C887        C  0.31704640  0.83504921  0.99094575    -0.20300
C888        C  0.33124748  0.86144385  0.98360984    -0.08300
C889        C  0.35421120  0.87890962  0.99218527     0.30500
C890        C  0.36220084  0.87017353  0.00810797    -0.20300
C891        C  0.34810587  0.84336144  0.01531933    -0.08300
C892        C  0.32555534  0.82582599  0.00650195     0.30500
F893        F  0.31100793  0.80005663  0.01303821    -0.18900
H894        H  0.29941305  0.82123228  0.98451487     0.18900
H895        H  0.37956516  0.88398943  0.01468900     0.18900
F896        F  0.36811686  0.90474698  0.98538606    -0.18800
C897        C  0.27317590  0.75812219  0.93226449    -0.20300
C898        C  0.25293632  0.78485368  0.93292713    -0.08300
C899        C  0.21977605  0.78025471  0.93408764     0.30500
C900        C  0.20738037  0.74947744  0.93452263    -0.20300
C901        C  0.22770890  0.72275073  0.93394580    -0.08300
C902        C  0.26082286  0.72741876  0.93280946     0.30500
F903        F  0.28139990  0.70241377  0.93239845    -0.18900
H904        H  0.29885153  0.76091764  0.93147350     0.18900
H905        H  0.18172684  0.74659457  0.93546129     0.18900
F906        F  0.19934030  0.80533234  0.93505003    -0.18800
C907        C  0.26172355  0.53009959  0.93394437    -0.20300
C908        C  0.22851151  0.53433625  0.93488380    -0.08300
C909        C  0.20881844  0.00728364  0.93552129     0.30500
C910        C  0.22221548  0.97681327  0.93528306    -0.20300
C911        C  0.25542999  0.97257222  0.93448735    -0.08300
C912        C  0.27512917  0.49959669  0.93373377     0.30500
F913        F  0.30736670  0.49668148  0.93276361    -0.18900
H914        H  0.27741434  0.55044968  0.93337556     0.18900
H915        H  0.20650442  0.95648125  0.93590305     0.18900
F916        F  0.17659298  0.01011708  0.93664481    -0.18800
C917        C  0.10985228  0.65827664  0.12539463    -0.20300
C918        C  0.11392904  0.64115368  0.11097811    -0.08300
C919        C  0.11793671  0.60798895  0.11178138     0.30500
C920        C  0.11755395  0.59239750  0.12668326    -0.20300
C921        C  0.11322697  0.60942525  0.14109831    -0.08300
C922        C  0.10941676  0.64264915  0.14032852     0.30500
F923        F  0.10555039  0.66012698  0.15395056    -0.18900
H924        H  0.10686282  0.68386260  0.12511951     0.18900
H925        H  0.12080914  0.56684299  0.12691178     0.18900
F926        F  0.12284470  0.59058473  0.09822458    -0.18800
C927        C  0.23794645  0.71699088  0.06737853    -0.20300
C928        C  0.21046466  0.73644290  0.06719442    -0.08300
C929        C  0.21429192  0.76961136  0.06729717     0.30500
C930        C  0.24483917  0.78286365  0.06743491    -0.20300
C931        C  0.27233226  0.76349490  0.06740249    -0.08300
C932        C  0.26856462  0.73026811  0.06744233     0.30500
F933        F  0.29432142  0.71053882  0.06736703    -0.18900
H934        H  0.23578792  0.69136267  0.06730336     0.18900
H935        H  0.24691170  0.80849437  0.06738850     0.18900
F936        F  0.18858769  0.78938215  0.06713516    -0.18800
C937        C  0.01849828  0.76945916  0.06288855    -0.20300
C938        C  0.02163656  0.73644824  0.06507583    -0.08300
C939        C  0.49373318  0.71826769  0.06712117     0.30500
C940        C  0.46360635  0.73285429  0.06682354    -0.20300
C941        C  0.46045231  0.76582321  0.06452875    -0.08300
C942        C  0.48835052  0.78405926  0.06261186     0.30500
F943        F  0.48666641  0.81602133  0.06047896    -0.18900
H944        H  0.03946876  0.78408974  0.06131252     0.18900
H945        H  0.44264980  0.71821062  0.06842577     0.18900
F946        F  0.49539250  0.68638352  0.06953305    -0.18800
C947        C  0.11084576  0.66333091  0.00376475    -0.20300
C948        C  0.12839687  0.65128799  0.01691380    -0.08300
C949        C  0.15400536  0.63034165  0.01397186     0.30500
C950        C  0.16294695  0.62320563  0.99811512    -0.20300
C951        C  0.14621950  0.63631512  0.98492791    -0.08300
C952        C  0.11936533  0.65567533  0.98791387     0.30500
F953        F  0.10231911  0.66862540  0.97555908    -0.18900
H954        H  0.09098057  0.67941385  0.00575360     0.18900
H955        H  0.18361760  0.60813817  0.99615943     0.18900
F956        F  0.17176725  0.61845236  0.02634466    -0.18800
C957        C  0.34878329  0.87607994  0.85977864    -0.20300
C958        C  0.38221922  0.87869029  0.85975363    -0.08300
C959        C  0.39843133  0.88082984  0.87462532     0.30500
C960        C  0.38155379  0.87981570  0.88913519    -0.20300
C961        C  0.34819367  0.87699395  0.88919597    -0.08300
C962        C  0.33184441  0.87522458  0.87432797     0.30500
F963        F  0.29958172  0.87233493  0.87378611    -0.18900
H964        H  0.33570795  0.87432455  0.84851773     0.18900
H965        H  0.39470379  0.88151414  0.90037325     0.18900
F966        F  0.43063532  0.88407044  0.87523030    -0.18800
C967        C  0.35924622  0.84112811  0.62651148    -0.20300
C968        C  0.36005693  0.85863487  0.64093762    -0.08300
C969        C  0.36004119  0.89204593  0.64008092     0.30500
C970        C  0.36011451  0.90738694  0.62507018    -0.20300
C971        C  0.35990508  0.88982632  0.61064613    -0.08300
C972        C  0.35903528  0.85645464  0.61152101     0.30500
F973        F  0.35863350  0.83850250  0.59792811    -0.18900
H974        H  0.35904570  0.81539150  0.62680087     0.18900
H975        H  0.36056139  0.93312159  0.62475380     0.18900
F976        F  0.36060459  0.90996055  0.65368644    -0.18800
C977        C  0.36119050  0.83702853  0.74768228    -0.20300
C978        C  0.37898908  0.84824564  0.73449727    -0.08300
C979        C  0.40474494  0.86881157  0.73732238     0.30500
C980        C  0.41355081  0.87643218  0.75312015    -0.20300
C981        C  0.39654729  0.86419482  0.76634781    -0.08300
C982        C  0.36961083  0.84517719  0.76348203     0.30500
F983        F  0.35250967  0.83291112  0.77592109    -0.18900
H984        H  0.34124646  0.82122913  0.74577500     0.18900
H985        H  0.43427794  0.89120301  0.75501568     0.18900
F986        F  0.42275396  0.87988656  0.72491930    -0.18800
C987        C  0.11318394  0.65662076  0.62668611    -0.20300
C988        C  0.11553269  0.63928523  0.64120009    -0.08300
C989        C  0.11685734  0.60593309  0.64055941     0.30500
C990        C  0.11652543  0.59046248  0.62566941    -0.20300
C991        C  0.11455917  0.60779728  0.61114133    -0.08300
C992        C  0.11250993  0.64112754  0.61179415     0.30500
F993        F  0.10977944  0.65882353  0.59811772    -0.18900
H994        H  0.11173435  0.68233023  0.62683671     0.18900
H995        H  0.11789266  0.56475043  0.62554433     0.18900
F996        F  0.11882790  0.58819027  0.65425075    -0.18800
C997        C  0.49582843  0.71592689  0.68280404    -0.20300
C998        C  0.02289288  0.73556547  0.68356422    -0.08300
C999        C  0.01847868  0.76862335  0.68473869     0.30500
C1000       C  0.48769820  0.78156097  0.68520476    -0.20300
C1001       C  0.46062145  0.76195653  0.68452719    -0.08300
C1002       C  0.46500041  0.72889003  0.68327909     0.30500
F1003       F  0.43962257  0.70901724  0.68252358    -0.18900
H1004       H  0.49847735  0.69038015  0.68194350     0.18900
H1005       H  0.48510864  0.80710069  0.68620011     0.18900
F1006       F  0.04380787  0.78853529  0.68563817    -0.18800
C1007       C  0.23899604  0.71553163  0.68768921    -0.20300
C1008       C  0.21165858  0.73488886  0.68611164    -0.08300
C1009       C  0.21555056  0.76798864  0.68481837     0.30500
C1010       C  0.24605342  0.78126751  0.68521117    -0.20300
C1011       C  0.27339520  0.76197092  0.68679818    -0.08300
C1012       C  0.26956893  0.72883129  0.68800616     0.30500
F1013       F  0.29523023  0.70923318  0.68964536    -0.18900
H1014       H  0.23674763  0.68998098  0.68870507     0.18900
H1015       H  0.24822833  0.80682591  0.68420851     0.18900
F1016       F  0.18994174  0.78768624  0.68330998    -0.18800
C1017       C  0.15124737  0.63355970  0.87646355    -0.20300
C1018       C  0.13511151  0.62541671  0.89075772    -0.08300
C1019       C  0.10298394  0.61602467  0.88986009     0.30500
C1020       C  0.08744608  0.61495151  0.87495425    -0.20300
C1021       C  0.10355584  0.62308898  0.86066895    -0.08300
C1022       C  0.13568764  0.63246026  0.86154260     0.30500
F1023       F  0.15188494  0.64128418  0.84807740    -0.18900
H1024       H  0.17596541  0.64103451  0.87682237     0.18900
H1025       H  0.06267519  0.60765132  0.87460367     0.18900
F1026       F  0.08652862  0.60773554  0.90333189    -0.18800
C1027       C  0.02721136  0.74500714  0.81960507    -0.20300
C1028       C  0.00732914  0.71812146  0.81947364    -0.08300
C1029       C  0.47403771  0.72272340  0.81962905     0.30500
C1030       C  0.46113060  0.75344366  0.81948391    -0.20300
C1031       C  0.48096275  0.78032329  0.81926205    -0.08300
C1032       C  0.01427887  0.77578015  0.81957670     0.30500
F1033       F  0.03441789  0.80095088  0.81964569    -0.18900
H1034       H  0.05297791  0.74225422  0.81956266     0.18900
H1035       H  0.43536011  0.75614333  0.81935552     0.18900
F1036       F  0.45383340  0.69761891  0.81971207    -0.18800
C1037       C  0.46227392  0.99422085  0.81826744    -0.20300
C1038       C  0.48068926  0.96762227  0.81386060    -0.08300
C1039       C  0.01278671  0.97217279  0.80941476     0.30500
C1040       C  0.02598502  0.00271526  0.80951490    -0.20300
C1041       C  0.00756203  0.52930512  0.81404878    -0.08300
C1042       C  0.47547252  0.52465557  0.81845423     0.30500
F1043       F  0.45682869  0.54939542  0.82318200    -0.18900
H1044       H  0.43752586  0.49145424  0.82180526     0.18900
H1045       H  0.05075591  0.00553517  0.80602848     0.18900
F1046       F  0.03136338  0.94726022  0.80482397    -0.18800
C1047       C  0.10746159  0.62562009  0.75877634    -0.20300
C1048       C  0.08490664  0.64375883  0.76730321    -0.08300
C1049       C  0.07175324  0.67110041  0.76010119     0.30500
C1050       C  0.08078386  0.68000255  0.74457251    -0.20300
C1051       C  0.10248312  0.66143189  0.73573706    -0.08300
C1052       C  0.11584950  0.63408381  0.74293592     0.30500
F1053       F  0.13706684  0.61577092  0.73474281    -0.18900
H1054       H  0.11782665  0.60451267  0.76419847     0.18900
H1055       H  0.07011424  0.70111475  0.73929098     0.18900
F1056       F  0.05037112  0.68948669  0.76818350    -0.18800
O1057       O  0.59324412  0.12467783  0.79440502    -0.56800
C1058       C  0.58623318  0.12260095  0.84514177     0.75800
O1059       O  0.50485826  0.16070774  0.81812727    -0.57900
C1060       C  0.57418242  0.13443654  0.78352247     0.75800
C1061       C  0.52203017  0.06146984  0.81433289     0.78200
Cd1062     Cd  0.55103247  0.12381308  0.81550886     1.37500
O1063       O  0.60044542  0.12383950  0.83164309    -0.56800
O1064       O  0.55144598  0.06562195  0.81161885    -0.55600
C1065       C  0.52160508  0.18576462  0.81866087     0.78200
O1066       O  0.50585211  0.08629704  0.81736234    -0.58000
O1067       O  0.55608225  0.12118445  0.84472565    -0.56400
O1068       O  0.54507836  0.13707435  0.78734500    -0.56400
O1069       O  0.55155408  0.18178728  0.81817835    -0.52400
O1070       O  0.61782098  0.15113293  0.70816498    -0.56800
C1071       C  0.61655009  0.15641146  0.65674450     0.75800
O1072       O  0.58050040  0.23771844  0.68433930    -0.57900
C1073       C  0.60975029  0.17090095  0.71898469     0.75800
C1074       C  0.67945373  0.22039894  0.68604984     0.78200
Cd1075     Cd  0.61711309  0.19167456  0.68623882     1.37500
O1076       O  0.61458548  0.14232677  0.67028389    -0.56800
O1077       O  0.67560271  0.19099444  0.68860649    -0.55600
C1078       C  0.55526195  0.22117129  0.68376814     0.78200
O1079       O  0.65429765  0.23659242  0.68354062    -0.58000
O1080       O  0.61933324  0.18631649  0.65711464    -0.56400
O1081       O  0.60686264  0.19958818  0.71462732    -0.56400
O1082       O  0.55906811  0.19132596  0.68370682    -0.55600
O1083       O  0.88094359  0.35059528  0.70551659    -0.56800
C1084       C  0.86184216  0.34167929  0.65661091     0.75800
O1085       O  0.90289722  0.26037897  0.68548578    -0.57900
C1086       C  0.87276264  0.33576531  0.71816321     0.75800
C1087       C  0.80539764  0.27687714  0.68703589     0.78200
Cd1088     Cd  0.86669495  0.30755546  0.68672639     1.37500
O1089       O  0.85975288  0.35591847  0.67003346    -0.56800
O1090       O  0.80842302  0.30678610  0.68753842    -0.55600
C1091       C  0.92835323  0.27654935  0.68517407     0.78200
O1092       O  0.83107880  0.26076204  0.68661473    -0.58000
O1093       O  0.86591595  0.31189422  0.65726376    -0.56400
O1094       O  0.86011998  0.30884260  0.71613953    -0.56400
O1095       O  0.92486525  0.30636708  0.68548200    -0.55600
O1096       O  0.89181990  0.36501565  0.79532366    -0.56800
C1097       C  0.90005974  0.37804077  0.84433538     0.75800
O1098       O  0.98272537  0.33779872  0.81795435    -0.57900
C1099       C  0.90888878  0.36900352  0.78287830     0.75800
C1100       C  0.96599729  0.43561726  0.81408534     0.78200
Cd1101     Cd  0.93574581  0.37410059  0.81477981     1.37500
O1102       O  0.88607319  0.37848882  0.83074034    -0.56800
O1103       O  0.93612822  0.43225805  0.81558902    -0.55600
C1104       C  0.96640063  0.31251302  0.81814345     0.78200
O1105       O  0.98229158  0.41023843  0.81292984    -0.58000
O1106       O  0.93023815  0.37642247  0.84405195    -0.56400
O1107       O  0.93771035  0.37639376  0.78530411    -0.56400
O1108       O  0.93650572  0.31609426  0.81703249    -0.55600
O1109       O  0.62939300  0.14786992  0.04594297    -0.56800
C1110       C  0.61432876  0.15807071  0.09529705     0.75800
O1111       O  0.65271903  0.23808779  0.06576283    -0.57900
C1112       C  0.62218841  0.16346693  0.03333902     0.75800
C1113       C  0.55385617  0.22134885  0.06510626     0.78200
Cd1114     Cd  0.61642039  0.19140938  0.06499778     1.37500
O1115       O  0.61236953  0.14353771  0.08194198    -0.56800
O1116       O  0.55751203  0.19145826  0.06554047    -0.55600
C1117       C  0.67827218  0.22183451  0.06663737     0.78200
O1118       O  0.57928815  0.23760472  0.06461732    -0.58000
O1119       O  0.61672357  0.18800503  0.09454312    -0.56400
O1120       O  0.61057145  0.19091798  0.03549374    -0.56400
O1121       O  0.67490046  0.19203597  0.06689243    -0.55600
O1122       O  0.64235620  0.13915268  0.95592700    -0.56800
C1123       C  0.65201747  0.12669966  0.90639836     0.75800
O1124       O  0.73115056  0.16544974  0.93422004    -0.57900
C1125       C  0.65863290  0.13201446  0.96834242     0.75800
C1126       C  0.71458922  0.06675337  0.93531073     0.78200
Cd1127     Cd  0.68553508  0.12867858  0.93642463     1.37500
O1128       O  0.63789209  0.12191650  0.91971564    -0.56800
O1129       O  0.68472299  0.07115198  0.93458174    -0.55600
C1130       C  0.71406100  0.19043640  0.93473389     0.78200
O1131       O  0.73167599  0.09149463  0.93649435    -0.58000
O1132       O  0.68157824  0.13261222  0.90713271    -0.56400
O1133       O  0.68674848  0.12202839  0.96585416    -0.56400
O1134       O  0.68429638  0.18642240  0.93602894    -0.55600
O1135       O  0.83982570  0.37851813  0.95611419    -0.56800
C1136       C  0.83092389  0.37665067  0.90476465     0.75800
O1137       O  0.75039737  0.34221138  0.93341876    -0.57900
C1138       C  0.82077147  0.36986577  0.96716440     0.75800
C1139       C  0.76923549  0.44011874  0.93463506     0.78200
Cd1140     Cd  0.79721882  0.37766552  0.93484624     1.37500
O1141       O  0.84556792  0.37520101  0.91818497    -0.56800
O1142       O  0.79905361  0.43550056  0.93544463    -0.55600
C1143       C  0.76710881  0.31695872  0.93298157     0.78200
O1144       O  0.75195463  0.41548508  0.93403813    -0.58000
O1145       O  0.80077171  0.37821639  0.90540287    -0.56400
O1146       O  0.79176414  0.36693555  0.96327193    -0.56400
O1147       O  0.79710117  0.32041708  0.93284034    -0.55600
O1148       O  0.86537781  0.35225697  0.04280572    -0.56800
C1149       C  0.86411355  0.34522462  0.09405086     0.75800
O1150       O  0.83014395  0.26260528  0.06632137    -0.57900
C1151       C  0.85621330  0.33318976  0.03192354     0.75800
C1152       C  0.92818128  0.28074451  0.06429613     0.78200
Cd1153     Cd  0.86526939  0.31006059  0.06431943     1.37500
O1154       O  0.86391115  0.35954714  0.08054720    -0.56800
O1155       O  0.92418021  0.31031028  0.06226962    -0.55600
C1156       C  0.80433108  0.27852553  0.06683972     0.78200
O1157       O  0.90298921  0.26460077  0.06617146    -0.58000
O1158       O  0.86481775  0.31519480  0.09355115    -0.56400
O1159       O  0.85323119  0.30444971  0.03606663    -0.56400
O1160       O  0.80716988  0.30845226  0.06660973    -0.55600
O1161       O  0.84392941  0.38277125  0.29468064    -0.56800
C1162       C  0.83490878  0.37336785  0.34424379     0.75800
O1163       O  0.75345066  0.41092858  0.31409099    -0.57900
C1164       C  0.82701256  0.37819769  0.28220608     0.75800
C1165       C  0.77073925  0.31226482  0.31451198     0.78200
Cd1166     Cd  0.80032402  0.37425804  0.31404779     1.37500
O1167       O  0.84931089  0.36966634  0.33091397    -0.56800
O1168       O  0.80037012  0.31611607  0.31233390    -0.55600
C1169       C  0.76994861  0.43612248  0.31372280     0.78200
O1170       O  0.75437258  0.33737825  0.31663100    -0.58000
O1171       O  0.80499867  0.37737615  0.34340634    -0.56400
O1172       O  0.79830132  0.37022782  0.28455427    -0.56400
O1173       O  0.79990166  0.43234809  0.31378637    -0.55600
O1174       O  0.85658292  0.39681337  0.20490681    -0.56800
C1175       C  0.86626194  0.40934227  0.15573326     0.75800
O1176       O  0.83100485  0.48921847  0.18578295    -0.57900
C1177       C  0.86299129  0.41230355  0.21757992     0.75800
C1178       C  0.92947588  0.46919511  0.18488869     0.78200
Cd1179     Cd  0.86689028  0.44145677  0.18615385     1.37500
O1180       O  0.86822285  0.39426567  0.16898200    -0.56800
O1181       O  0.92539859  0.43943562  0.18427703    -0.55600
C1182       C  0.80550479  0.47310659  0.18524358     0.78200
O1183       O  0.90443745  0.48612613  0.18614267    -0.58000
O1184       O  0.86505025  0.43933586  0.15666790    -0.56400
O1185       O  0.87310132  0.44030609  0.21557550    -0.56400
O1186       O  0.80894509  0.44328491  0.18517565    -0.55600
O1187       O  0.63967544  0.11552410  0.29524590    -0.56800
C1188       C  0.65291972  0.12571815  0.34527701     0.75800
O1189       O  0.73146421  0.08808457  0.31337963    -0.57900
C1190       C  0.65554982  0.12192083  0.28263176     0.75800
C1191       C  0.71341041  0.18692387  0.31421898     0.78200
Cd1192     Cd  0.68453941  0.12479179  0.31424117     1.37500
O1193       O  0.63755639  0.12565433  0.33206565    -0.56800
O1194       O  0.68354910  0.18304975  0.31289321    -0.55600
C1195       C  0.71494704  0.06289910  0.31354324     0.78200
O1196       O  0.73021084  0.16181873  0.31546554    -0.58000
O1197       O  0.68304212  0.12582386  0.34413704    -0.56400
O1198       O  0.68388896  0.13124559  0.28480388    -0.56400
O1199       O  0.68505388  0.06671584  0.31424295    -0.55600
O1200       O  0.62815034  0.10071802  0.20570796    -0.56800
C1201       C  0.61347878  0.09219532  0.15669534     0.75800
O1202       O  0.65295517  0.01103120  0.18606192    -0.57900
C1203       C  0.61960484  0.08580189  0.21826575     0.75800
C1204       C  0.55471864  0.02697803  0.18518188     0.78200
Cd1205     Cd  0.61595437  0.05760397  0.18659260     1.37500
O1206       O  0.60832794  0.10591698  0.17005310    -0.56800
O1207       O  0.55788208  0.05684653  0.18560419    -0.55600
C1208       C  0.67811318  0.02762312  0.18521427     0.78200
O1209       O  0.58032952  0.01071037  0.18545741    -0.58000
O1210       O  0.61918478  0.06266609  0.15733789    -0.56400
O1211       O  0.60800789  0.05845790  0.21607562    -0.56400
O1212       O  0.67410869  0.05738697  0.18495935    -0.55600
O1213       O  0.88982487  0.37882853  0.45612121    -0.56800
C1214       C  0.90099365  0.37036765  0.40586555     0.75800
O1215       O  0.98071703  0.40736701  0.43634652    -0.57900
C1216       C  0.90711746  0.37573799  0.46861188     0.75800
C1217       C  0.96344984  0.30877674  0.43633900     0.78200
Cd1218     Cd  0.93402354  0.37116605  0.43647076     1.37500
O1219       O  0.88583833  0.37035397  0.41913476    -0.56800
O1220       O  0.93345458  0.31274650  0.43655519    -0.55600
C1221       C  0.96451018  0.43258675  0.43422270     0.78200
O1222       O  0.98011001  0.33386357  0.43598253    -0.58000
O1223       O  0.93114045  0.36991334  0.40690355    -0.56400
O1224       O  0.93624042  0.36931958  0.46617885    -0.56400
O1225       O  0.93464858  0.42911037  0.43303453    -0.55600
O1226       O  0.87765963  0.39539899  0.54593816    -0.56800
C1227       C  0.86128056  0.40648529  0.59489636     0.75800
O1228       O  0.90146340  0.48565389  0.56529924    -0.57900
C1229       C  0.86975864  0.41005419  0.53315877     0.75800
C1230       C  0.80305397  0.47010699  0.56543470     0.78200
Cd1231     Cd  0.86467365  0.43937383  0.56451198     1.37500
O1232       O  0.85787412  0.39204413  0.58159250    -0.56800
O1233       O  0.80651514  0.44026254  0.56642862    -0.55600
C1234       C  0.92669897  0.46893539  0.56634973     0.78200
O1235       O  0.82842842  0.48616406  0.56381404    -0.58000
O1236       O  0.86619299  0.43609035  0.59403222    -0.56400
O1237       O  0.85743678  0.43731860  0.53497242    -0.56400
O1238       O  0.92286474  0.43920168  0.56640264    -0.55600
O1239       O  0.61384815  0.09577158  0.54424354    -0.56800
C1240       C  0.61461325  0.09062161  0.59559641     0.75800
O1241       O  0.57789450  0.00877949  0.56885649    -0.57900
C1242       C  0.60738547  0.07564045  0.53334817     0.75800
C1243       C  0.67640217  0.02610159  0.56641295     0.78200
Cd1244     Cd  0.61402976  0.05501575  0.56620415     1.37500
O1245       O  0.61321994  0.10471759  0.58203615    -0.56800
O1246       O  0.67219086  0.05532726  0.56341143    -0.55600
C1247       C  0.55249216  0.02538661  0.56895301     0.78200
O1248       O  0.65148710  0.01003544  0.56922801    -0.58000
O1249       O  0.61607301  0.06061294  0.59525785    -0.56400
O1250       O  0.60532373  0.04694079  0.53776713    -0.56400
O1251       O  0.55604997  0.05519536  0.56829570    -0.55600
O1252       O  0.59227016  0.12047707  0.45732055    -0.56800
C1253       C  0.58585663  0.12203090  0.40644852     0.75800
O1254       O  0.50348482  0.08365999  0.43361393    -0.57900
C1255       C  0.57377702  0.10958762  0.46808976     0.75800
C1256       C  0.51917586  0.18204786  0.43712789     0.78200
Cd1257     Cd  0.54987077  0.12003099  0.43604702     1.37500
O1258       O  0.60001259  0.12152334  0.42000128    -0.56800
O1259       O  0.54860048  0.17797106  0.43996154    -0.55600
C1260       C  0.52023082  0.05843635  0.43312833     0.78200
O1261       O  0.50339452  0.15715225  0.43406956    -0.58000
O1262       O  0.55568061  0.12176293  0.40686100    -0.56400
O1263       O  0.54494766  0.10554438  0.46411270    -0.56400
O1264       O  0.55020751  0.06206749  0.43343029    -0.55600
C1265       C  0.60598154  0.11981405  0.49314617    -0.20300
C1266       C  0.58475083  0.10069849  0.48437945    -0.08300
C1267       C  0.57260034  0.07301729  0.49153283     0.30500
C1268       C  0.58090060  0.06495132  0.50728845    -0.20300
C1269       C  0.60099916  0.08455472  0.51639928    -0.08300
C1270       C  0.61376022  0.11206089  0.50920231     0.30500
F1271       F  0.63375039  0.13120959  0.51759761    -0.18900
H1272       H  0.61564637  0.14116862  0.48775618     0.18900
H1273       H  0.57084289  0.04361212  0.51252063     0.18900
F1274       F  0.55274314  0.05355751  0.48321744    -0.18800
C1275       C  0.96231431  0.01626242  0.56828232    -0.20300
C1276       C  0.95895009  0.48314621  0.56753116    -0.08300
C1277       C  0.98666006  0.46392679  0.56801986     0.30500
C1278       C  0.51692500  0.47776077  0.56886865    -0.20300
C1279       C  0.52028324  0.01092660  0.56929537    -0.08300
C1280       C  0.99254441  0.03007077  0.56923582     0.30500
F1281       F  0.99448049  0.06222122  0.56994264    -0.18900
H1282       H  0.94147234  0.03160415  0.56809052     0.18900
H1283       H  0.53779476  0.46244258  0.56894455     0.18900
F1284       F  0.98469227  0.43175251  0.56749402    -0.18800
C1285       C  0.74411001  0.46600826  0.56936536    -0.20300
C1286       C  0.77090295  0.48497720  0.56609348    -0.08300
C1287       C  0.76635099  0.01769941  0.56331238     0.30500
C1288       C  0.73559596  0.03083510  0.56352241    -0.20300
C1289       C  0.70877892  0.01175115  0.56656265    -0.08300
C1290       C  0.71339269  0.47914565  0.56962462     0.30500
F1291       F  0.68829751  0.45979950  0.57275196    -0.18900
H1292       H  0.74686893  0.44079636  0.57166737     0.18900
H1293       H  0.73279369  0.05603758  0.56120005     0.18900
F1294       F  0.79145569  0.03701224  0.56017290    -0.18800
C1295       C  0.96042909  0.49118184  0.42919448    -0.20300
C1296       C  0.97924652  0.46454217  0.43332417    -0.08300
C1297       C  0.51174950  0.46906193  0.43690738     0.30500
C1298       C  0.52485931  0.99956758  0.43652956    -0.20300
C1299       C  0.50594262  0.02625885  0.43266274    -0.08300
C1300       C  0.97353698  0.02172193  0.42886527     0.30500
F1301       F  0.95452924  0.04669189  0.42473766    -0.18900
H1302       H  0.93534522  0.48842524  0.42627262     0.18900
H1303       H  0.54987015  0.00235548  0.43959542     0.18900
F1304       F  0.53077981  0.44417192  0.44113114    -0.18800
C1305       C  0.95840180  0.24958487  0.43483173    -0.20300
C1306       C  0.97793489  0.27645951  0.43657448    -0.08300
C1307       C  0.51098811  0.27189531  0.43877487     0.30500
C1308       C  0.52400166  0.24118300  0.43908021    -0.20300
C1309       C  0.50451641  0.21430641  0.43719108    -0.08300
C1310       C  0.97142195  0.21886091  0.43513339     0.30500
F1311       F  0.95152299  0.19372013  0.43349760    -0.18900
H1312       H  0.93284058  0.25231635  0.43319611     0.18900
H1313       H  0.54956132  0.23847917  0.44073788     0.18900
F1314       F  0.53078843  0.29700239  0.44081932    -0.18800
C1315       C  0.85798744  0.40713499  0.50361332    -0.20300
C1316       C  0.87627247  0.39704800  0.51692480    -0.08300
C1317       C  0.90300914  0.37737314  0.51429616     0.30500
C1318       C  0.91219966  0.36950763  0.49855637    -0.20300
C1319       C  0.89462663  0.38060664  0.48517295    -0.08300
C1320       C  0.86681496  0.39874240  0.48788160     0.30500
F1321       F  0.84922498  0.41005363  0.47531852    -0.18900
H1322       H  0.83734844  0.42232055  0.50536366     0.18900
H1323       H  0.93366370  0.35550307  0.49681910     0.18900
F1324       F  0.92161502  0.36762970  0.52683712    -0.18800
C1325       C  0.60322214  0.12051954  0.36152406    -0.20300
C1326       C  0.63635464  0.12522236  0.36110409    -0.08300
C1327       C  0.65296870  0.12881969  0.37582208     0.30500
C1328       C  0.63652184  0.12762333  0.39055225    -0.20300
C1329       C  0.60332153  0.12293464  0.39089743    -0.08300
C1330       C  0.58685442  0.11931756  0.37617622     0.30500
F1331       F  0.55487879  0.11424442  0.37585152    -0.18900
H1332       H  0.58982825  0.11747294  0.35044039     0.18900
H1333       H  0.64977161  0.13057157  0.40169363     0.18900
F1334       F  0.68497525  0.13375219  0.37604003    -0.18800
C1335       C  0.61763527  0.09529289  0.26378371    -0.20300
C1336       C  0.64255758  0.11699406  0.26619389    -0.08300
C1337       C  0.65705742  0.13108641  0.25263184     0.30500
C1338       C  0.64790400  0.12227183  0.23703784    -0.20300
C1339       C  0.62466267  0.09881898  0.23464480    -0.08300
C1340       C  0.60891164  0.08600809  0.24817260     0.30500
F1341       F  0.58581514  0.06378123  0.24636397    -0.18900
H1342       H  0.60604821  0.08415229  0.27401588     0.18900
H1343       H  0.66031216  0.13259977  0.22682561     0.18900
F1344       F  0.68085155  0.15258296  0.25440350    -0.18800
C1345       C  0.73750622  0.03340396  0.18565359    -0.20300
C1346       C  0.71062234  0.01352150  0.18472253    -0.08300
C1347       C  0.71537933  0.48052855  0.18350603     0.30500
C1348       C  0.74628993  0.46784518  0.18356490    -0.20300
C1349       C  0.77317401  0.48764126  0.18477478    -0.08300
C1350       C  0.76846989  0.02070578  0.18567164     0.30500
F1351       F  0.79362286  0.04081063  0.18671829    -0.18900
H1352       H  0.73460096  0.05892248  0.18653262     0.18900
H1353       H  0.74912273  0.44231545  0.18271399     0.18900
F1354       F  0.69027919  0.46041785  0.18222170    -0.18800
C1355       C  0.96474157  0.01672211  0.18452147    -0.20300
C1356       C  0.96170407  0.48353388  0.18431810    -0.08300
C1357       C  0.98960704  0.46464857  0.18383433     0.30500
C1358       C  0.51975533  0.47888396  0.18399451    -0.20300
C1359       C  0.52272810  0.01210817  0.18452191    -0.08300
C1360       C  0.99478665  0.03092607  0.18458957     0.30500
F1361       F  0.99630086  0.06313088  0.18488303    -0.18900
H1362       H  0.94374598  0.03186123  0.18475593     0.18900
H1363       H  0.54081616  0.46382811  0.18381234     0.18900
F1364       F  0.98791365  0.43245663  0.18337554    -0.18800
C1365       C  0.88540571  0.37158734  0.36054142    -0.20300
C1366       C  0.85189241  0.37291969  0.35998436    -0.08300
C1367       C  0.83480886  0.37373292  0.37463098     0.30500
C1368       C  0.85093664  0.37271234  0.38941963    -0.20300
C1369       C  0.88440944  0.37116418  0.39001011    -0.08300
C1370       C  0.90158159  0.37089800  0.37536141     0.30500
F1371       F  0.93399307  0.37006206  0.37528563    -0.18900
H1372       H  0.89918071  0.37120182  0.34947721     0.18900
H1373       H  0.83709812  0.37321782  0.40045823     0.18900
F1374       F  0.80243111  0.37531611  0.37474338    -0.18800
C1375       C  0.77535800  0.49520668  0.31215682    -0.20300
C1376       C  0.75550975  0.46839372  0.31323618    -0.08300
C1377       C  0.72224620  0.47300334  0.31387951     0.30500
C1378       C  0.70938729  0.50375726  0.31378783    -0.20300
C1379       C  0.72927678  0.03058747  0.31306069    -0.08300
C1380       C  0.76249375  0.02595877  0.31204143     0.30500
F1381       F  0.78262791  0.05104937  0.31101823    -0.18900
H1382       H  0.80108362  0.49242197  0.31147848     0.18900
H1383       H  0.68365689  0.00653870  0.31445294     0.18900
F1384       F  0.70208750  0.44791129  0.31477746    -0.18800
C1385       C  0.72299610  0.27671832  0.31634089    -0.20300
C1386       C  0.75615103  0.28014001  0.31449075    -0.08300
C1387       C  0.77504856  0.25257640  0.31253612     0.30500
C1388       C  0.76099440  0.22247884  0.31250272    -0.20300
C1389       C  0.72785756  0.21906852  0.31430462    -0.08300
C1390       C  0.70892162  0.24659808  0.31621979     0.30500
F1391       F  0.67683449  0.24450377  0.31821999    -0.18900
H1392       H  0.70784578  0.29742732  0.31788189     0.18900
H1393       H  0.77613746  0.20176234  0.31096279     0.18900
F1394       F  0.80717168  0.25453944  0.31066214    -0.18800
C1395       C  0.87332558  0.41262829  0.24720221    -0.20300
C1396       C  0.85733919  0.39940682  0.23392605    -0.08300
C1397       C  0.83322810  0.37686773  0.23667353     0.30500
C1398       C  0.82431033  0.36905287  0.25246370    -0.20300
C1399       C  0.83949337  0.38323633  0.26573638    -0.08300
C1400       C  0.86461131  0.40460715  0.26297232     0.30500
F1401       F  0.87917444  0.41956956  0.27545686    -0.18900
H1402       H  0.89180104  0.43018403  0.24537247     0.18900
H1403       H  0.80479066  0.35264921  0.25431180     0.18900
F1404       F  0.81665534  0.36416967  0.22417173    -0.18800
C1405       C  0.86521312  0.34448286  0.12412206    -0.20300
C1406       C  0.86389437  0.36215871  0.10969678    -0.08300
C1407       C  0.86294640  0.39554943  0.11055653     0.30500
C1408       C  0.86359891  0.41069947  0.12557104    -0.20300
C1409       C  0.86532169  0.39294373  0.13997367    -0.08300
C1410       C  0.86602567  0.35958671  0.13909109     0.30500
F1411       F  0.86768402  0.34142237  0.15265115    -0.18900
H1412       H  0.86592577  0.31875243  0.12385487     0.18900
H1413       H  0.86292955  0.43643389  0.12590121     0.18900
F1414       F  0.86159971  0.41362330  0.09696034    -0.18800
C1415       C  0.81704657  0.33504916  0.99094578    -0.20300
C1416       C  0.83124748  0.36144378  0.98360984    -0.08300
C1417       C  0.85421123  0.37890957  0.99218528     0.30500
C1418       C  0.86220082  0.37017351  0.00810797    -0.20300
C1419       C  0.84810591  0.34336149  0.01531936    -0.08300
C1420       C  0.82555545  0.32582591  0.00650195     0.30500
F1421       F  0.81100810  0.30005654  0.01303821    -0.18900
H1422       H  0.79941283  0.32123187  0.98451474     0.18900
H1423       H  0.87956531  0.38398957  0.01468907     0.18900
F1424       F  0.86811683  0.40474692  0.98538607    -0.18800
C1425       C  0.77317583  0.25812221  0.93226449    -0.20300
C1426       C  0.75293625  0.28485372  0.93292713    -0.08300
C1427       C  0.71977598  0.28025478  0.93408764     0.30500
C1428       C  0.70738033  0.24947749  0.93452263    -0.20300
C1429       C  0.72770884  0.22275074  0.93394580    -0.08300
C1430       C  0.76082280  0.22741875  0.93280946     0.30500
F1431       F  0.78139982  0.20241373  0.93239845    -0.18900
H1432       H  0.79885148  0.26091766  0.93147350     0.18900
H1433       H  0.68172671  0.24659461  0.93546130     0.18900
F1434       F  0.69934026  0.30533245  0.93505003    -0.18800
C1435       C  0.76172357  0.03009974  0.93394427    -0.20300
C1436       C  0.72851150  0.03433636  0.93488374    -0.08300
C1437       C  0.70881839  0.50728353  0.93552123     0.30500
C1438       C  0.72221545  0.47681318  0.93528304    -0.20300
C1439       C  0.75542994  0.47257216  0.93448734    -0.08300
C1440       C  0.77512914  0.99959675  0.93373376     0.30500
F1441       F  0.80736668  0.99668154  0.93276361    -0.18900
H1442       H  0.77741412  0.05044945  0.93337544     0.18900
H1443       H  0.70650440  0.45648116  0.93590305     0.18900
F1444       F  0.67659293  0.51011694  0.93664480    -0.18800
C1445       C  0.60985222  0.15827685  0.12539464    -0.20300
C1446       C  0.61392898  0.14115373  0.11097812    -0.08300
C1447       C  0.61793664  0.10798904  0.11178139     0.30500
C1448       C  0.61755389  0.09239757  0.12668325    -0.20300
C1449       C  0.61322691  0.10942528  0.14109831    -0.08300
C1450       C  0.60941669  0.14264916  0.14032853     0.30500
F1451       F  0.60555032  0.16012694  0.15395058    -0.18900
H1452       H  0.60686291  0.18386194  0.12511954     0.18900
H1453       H  0.62080910  0.06684301  0.12691176     0.18900
F1454       F  0.62284464  0.09058485  0.09822458    -0.18800
C1455       C  0.73794643  0.21699110  0.06737853    -0.20300
C1456       C  0.71046465  0.23644299  0.06719442    -0.08300
C1457       C  0.71429191  0.26961148  0.06729717     0.30500
C1458       C  0.74483915  0.28286377  0.06743492    -0.20300
C1459       C  0.77233222  0.26349499  0.06740249    -0.08300
C1460       C  0.76856456  0.23026819  0.06744232     0.30500
F1461       F  0.79432136  0.21053894  0.06736691    -0.18900
H1462       H  0.73578780  0.19136208  0.06730335     0.18900
H1463       H  0.74691170  0.30849441  0.06738850     0.18900
F1464       F  0.68858767  0.28938226  0.06713516    -0.18800
C1465       C  0.51849823  0.26945922  0.06288856    -0.20300
C1466       C  0.52163654  0.23644828  0.06507582    -0.08300
C1467       C  0.99373312  0.21826772  0.06712117     0.30500
C1468       C  0.96360646  0.23285447  0.06682353    -0.20300
C1469       C  0.96045230  0.26582332  0.06452875    -0.08300
C1470       C  0.98835059  0.28405938  0.06261186     0.30500
F1471       F  0.98666657  0.31602146  0.06047897    -0.18900
H1472       H  0.53946863  0.28408976  0.06131255     0.18900
H1473       H  0.94264926  0.21821038  0.06842580     0.18900
F1474       F  0.99539243  0.18638352  0.06953293    -0.18800
C1475       C  0.61084589  0.16333087  0.00376474    -0.20300
C1476       C  0.62839687  0.15128800  0.01691380    -0.08300
C1477       C  0.65400535  0.13034163  0.01397185     0.30500
C1478       C  0.66294687  0.12320570  0.99811512    -0.20300
C1479       C  0.64621949  0.13631508  0.98492791    -0.08300
C1480       C  0.61936532  0.15567537  0.98791387     0.30500
F1481       F  0.60231904  0.16862535  0.97555909    -0.18900
H1482       H  0.59098015  0.17941420  0.00575366     0.18900
H1483       H  0.68361798  0.10813795  0.99615939     0.18900
F1484       F  0.67176724  0.11845246  0.02634467    -0.18800
C1485       C  0.84878333  0.37607989  0.85977863    -0.20300
C1486       C  0.88221926  0.37869031  0.85975363    -0.08300
C1487       C  0.89843133  0.38082981  0.87462533     0.30500
C1488       C  0.88155378  0.37981565  0.88913519    -0.20300
C1489       C  0.84819367  0.37699399  0.88919596    -0.08300
C1490       C  0.83184441  0.37522457  0.87432796     0.30500
F1491       F  0.79958169  0.37233507  0.87378610    -0.18900
H1492       H  0.83570803  0.37432445  0.84851772     0.18900
H1493       H  0.89470375  0.38151402  0.90037326     0.18900
F1494       F  0.93063531  0.38407036  0.87523031    -0.18800
C1495       C  0.85924622  0.34112807  0.62651147    -0.20300
C1496       C  0.86005686  0.35863485  0.64093762    -0.08300
C1497       C  0.86004112  0.39204590  0.64008092     0.30500
C1498       C  0.86011443  0.40738691  0.62507018    -0.20300
C1499       C  0.85990506  0.38982633  0.61064613    -0.08300
C1500       C  0.85903538  0.35645461  0.61152101     0.30500
F1501       F  0.85863368  0.33850244  0.59792811    -0.18900
H1502       H  0.85904572  0.31539158  0.62680087     0.18900
H1503       H  0.86056130  0.43312168  0.62475381     0.18900
F1504       F  0.86060452  0.40996049  0.65368644    -0.18800
C1505       C  0.86119045  0.33702868  0.74768228    -0.20300
C1506       C  0.87898909  0.34824566  0.73449727    -0.08300
C1507       C  0.90474501  0.36881157  0.73732238     0.30500
C1508       C  0.91355091  0.37643208  0.75312015    -0.20300
C1509       C  0.89654735  0.36419476  0.76634781    -0.08300
C1510       C  0.86961077  0.34517728  0.76348203     0.30500
F1511       F  0.85250965  0.33291110  0.77592108    -0.18900
H1512       H  0.84124630  0.32122927  0.74577499     0.18900
H1513       H  0.93427821  0.39120291  0.75501570     0.18900
F1514       F  0.92275412  0.37988648  0.72491930    -0.18800
C1515       C  0.61318385  0.15662074  0.62668611    -0.20300
C1516       C  0.61553263  0.13928527  0.64120009    -0.08300
C1517       C  0.61685728  0.10593307  0.64055941     0.30500
C1518       C  0.61652535  0.09046268  0.62566941    -0.20300
C1519       C  0.61455911  0.10779729  0.61114134    -0.08300
C1520       C  0.61250987  0.14112758  0.61179415     0.30500
F1521       F  0.60977937  0.15882350  0.59811771    -0.18900
H1522       H  0.61173419  0.18233050  0.62683671     0.18900
H1523       H  0.61789263  0.06474965  0.62554431     0.18900
F1524       F  0.61882783  0.08819024  0.65425074    -0.18800
C1525       C  0.99582846  0.21592675  0.68280406    -0.20300
C1526       C  0.52289286  0.23556552  0.68356422    -0.08300
C1527       C  0.51847864  0.26862339  0.68473869     0.30500
C1528       C  0.98769828  0.28156091  0.68520478    -0.20300
C1529       C  0.96062149  0.26195650  0.68452729    -0.08300
C1530       C  0.96500042  0.22889000  0.68327920     0.30500
F1531       F  0.93962256  0.20901721  0.68252370    -0.18900
H1532       H  0.99847730  0.19038067  0.68194351     0.18900
H1533       H  0.98510874  0.30710080  0.68620010     0.18900
F1534       F  0.54380778  0.28853539  0.68563817    -0.18800
C1535       C  0.73899605  0.21553175  0.68768921    -0.20300
C1536       C  0.71165856  0.23488879  0.68611164    -0.08300
C1537       C  0.71555054  0.26798859  0.68481837     0.30500
C1538       C  0.74605339  0.28126745  0.68521117    -0.20300
C1539       C  0.77339520  0.26197088  0.68679818    -0.08300
C1540       C  0.76956892  0.22883123  0.68800616     0.30500
F1541       F  0.79523019  0.20923312  0.68964536    -0.18900
H1542       H  0.73674757  0.18998016  0.68870511     0.18900
H1543       H  0.74822829  0.30682588  0.68420851     0.18900
F1544       F  0.68994168  0.28768616  0.68330998    -0.18800
C1545       C  0.65124733  0.13355963  0.87646355    -0.20300
C1546       C  0.63511145  0.12541668  0.89075771    -0.08300
C1547       C  0.60298386  0.11602475  0.88986009     0.30500
C1548       C  0.58744602  0.11495147  0.87495425    -0.20300
C1549       C  0.60355581  0.12308891  0.86066894    -0.08300
C1550       C  0.63568762  0.13246020  0.86154260     0.30500
F1551       F  0.65188503  0.14128407  0.84807741    -0.18900
H1552       H  0.67596536  0.14103439  0.87682238     0.18900
H1553       H  0.56267518  0.10765127  0.87460366     0.18900
F1554       F  0.58652853  0.10773569  0.90333190    -0.18800
C1555       C  0.52721141  0.24500708  0.81960507    -0.20300
C1556       C  0.50732910  0.21812145  0.81947364    -0.08300
C1557       C  0.97403765  0.22272343  0.81962905     0.30500
C1558       C  0.96113077  0.25344368  0.81948391    -0.20300
C1559       C  0.98096271  0.28032331  0.81926204    -0.08300
C1560       C  0.51427892  0.27578011  0.81957670     0.30500
F1561       F  0.53441801  0.30095079  0.81964569    -0.18900
H1562       H  0.55297772  0.24225414  0.81956266     0.18900
H1563       H  0.93535932  0.25614347  0.81935552     0.18900
F1564       F  0.95383333  0.19761900  0.81971207    -0.18800
C1565       C  0.96227414  0.49422085  0.81826742    -0.20300
C1566       C  0.98068935  0.46762230  0.81386060    -0.08300
C1567       C  0.51278677  0.47217283  0.80941475     0.30500
C1568       C  0.52598508  0.50271533  0.80951490    -0.20300
C1569       C  0.50756195  0.02930508  0.81404879    -0.08300
C1570       C  0.97547252  0.02465557  0.81845423     0.30500
F1571       F  0.95682881  0.04939551  0.82318200    -0.18900
H1572       H  0.93752578  0.99145424  0.82180525     0.18900
H1573       H  0.55075587  0.50553523  0.80602852     0.18900
F1574       F  0.53136350  0.44726022  0.80482409    -0.18800
C1575       C  0.60746159  0.12562008  0.75877633    -0.20300
C1576       C  0.58490664  0.14375873  0.76730320    -0.08300
C1577       C  0.57175322  0.17110032  0.76010118     0.30500
C1578       C  0.58078384  0.18000244  0.74457251    -0.20300
C1579       C  0.60248310  0.16143187  0.73573706    -0.08300
C1580       C  0.61584957  0.13408383  0.74293593     0.30500
F1581       F  0.63706680  0.11577086  0.73474281    -0.18900
H1582       H  0.61782671  0.10451247  0.76419849     0.18900
H1583       H  0.57011412  0.20111491  0.73929095     0.18900
F1584       F  0.55037123  0.18948665  0.76818353    -0.18800
O1585       O  0.59324411  0.62467791  0.79440502    -0.56800
C1586       C  0.58623320  0.62260098  0.84514178     0.75800
O1587       O  0.50485829  0.66070780  0.81812727    -0.57900
C1588       C  0.57418241  0.63443663  0.78352248     0.75800
C1589       C  0.52203016  0.56146992  0.81433289     0.78200
Cd1590     Cd  0.55103246  0.62381314  0.81550886     1.37500
O1591       O  0.60044541  0.62383960  0.83164308    -0.56800
O1592       O  0.55144597  0.56562204  0.81161884    -0.55600
C1593       C  0.52160515  0.68576465  0.81866087     0.78200
O1594       O  0.50585210  0.58629712  0.81736234    -0.58000
O1595       O  0.55608228  0.62118433  0.84472566    -0.56400
O1596       O  0.54507835  0.63707443  0.78734500    -0.56400
O1597       O  0.55155415  0.68178726  0.81817836    -0.52400
O1598       O  0.61782097  0.65113301  0.70816498    -0.56800
C1599       C  0.61655009  0.65641147  0.65674450     0.75800
O1600       O  0.58050040  0.73771851  0.68433930    -0.57900
C1601       C  0.60975029  0.67090102  0.71898470     0.75800
C1602       C  0.67945379  0.72039893  0.68604984     0.78200
Cd1603     Cd  0.61711309  0.69167462  0.68623882     1.37500
O1604       O  0.61458547  0.64232680  0.67028390    -0.56800
O1605       O  0.67560274  0.69099445  0.68860650    -0.55600
C1606       C  0.55526195  0.72117137  0.68376814     0.78200
O1607       O  0.65429773  0.73659242  0.68354060    -0.58000
O1608       O  0.61933323  0.68631649  0.65711463    -0.56400
O1609       O  0.60686263  0.69958826  0.71462732    -0.56400
O1610       O  0.55906810  0.69132604  0.68370682    -0.55600
O1611       O  0.88094376  0.85059528  0.70551659    -0.56800
C1612       C  0.86184215  0.84167934  0.65661091     0.75800
O1613       O  0.90289723  0.76037881  0.68548576    -0.57900
C1614       C  0.87276265  0.83576536  0.71816320     0.75800
C1615       C  0.80539763  0.77687720  0.68703589     0.78200
Cd1616     Cd  0.86669496  0.80755537  0.68672639     1.37500
O1617       O  0.85975288  0.85591851  0.67003346    -0.56800
O1618       O  0.80842302  0.80678617  0.68753842    -0.55600
C1619       C  0.92835322  0.77654923  0.68517400     0.78200
O1620       O  0.83107877  0.76076209  0.68661473    -0.58000
O1621       O  0.86591595  0.81189426  0.65726376    -0.56400
O1622       O  0.86011996  0.80884269  0.71613951    -0.56400
O1623       O  0.92486521  0.80636694  0.68548198    -0.55600
O1624       O  0.89181994  0.86501551  0.79532370    -0.56800
C1625       C  0.90005980  0.87804075  0.84433538     0.75800
O1626       O  0.98272535  0.83779865  0.81795435    -0.57900
C1627       C  0.90888874  0.86900353  0.78287833     0.75800
C1628       C  0.96599720  0.93561717  0.81408532     0.78200
Cd1629     Cd  0.93574581  0.87410046  0.81477981     1.37500
O1630       O  0.88607322  0.87848868  0.83074035    -0.56800
O1631       O  0.93612814  0.93225794  0.81558903    -0.55600
C1632       C  0.96640060  0.81251295  0.81814345     0.78200
O1633       O  0.98229150  0.91023835  0.81292974    -0.58000
O1634       O  0.93023820  0.87642256  0.84405194    -0.56400
O1635       O  0.93771030  0.87639384  0.78530412    -0.56400
O1636       O  0.93650570  0.81609416  0.81703249    -0.55600
O1637       O  0.62939299  0.64786999  0.04594297    -0.56800
C1638       C  0.61432890  0.65807068  0.09529705     0.75800
O1639       O  0.65271907  0.73808763  0.06576273    -0.57900
C1640       C  0.62218840  0.66346700  0.03333901     0.75800
C1641       C  0.55385617  0.72134879  0.06510626     0.78200
Cd1642     Cd  0.61642039  0.69140941  0.06499778     1.37500
O1643       O  0.61236957  0.64353774  0.08194197    -0.56800
O1644       O  0.55751200  0.69145819  0.06554046    -0.55600
C1645       C  0.67827223  0.72183435  0.06663734     0.78200
O1646       O  0.57928814  0.73760465  0.06461732    -0.58000
O1647       O  0.61672361  0.68800504  0.09454313    -0.56400
O1648       O  0.61057144  0.69091806  0.03549374    -0.56400
O1649       O  0.67490056  0.69203582  0.06689244    -0.55600
O1650       O  0.64235636  0.63915276  0.95592701    -0.56800
C1651       C  0.65201754  0.62669974  0.90639837     0.75800
O1652       O  0.73115061  0.66544975  0.93422004    -0.57900
C1653       C  0.65863305  0.63201451  0.96834243     0.75800
C1654       C  0.71458919  0.56675324  0.93531073     0.78200
Cd1655     Cd  0.68553511  0.62867862  0.93642463     1.37500
O1656       O  0.63789213  0.62191660  0.91971563    -0.56800
O1657       O  0.68472297  0.57115187  0.93458174    -0.55600
C1658       C  0.71406108  0.69043642  0.93473389     0.78200
O1659       O  0.73167596  0.59149450  0.93649435    -0.58000
O1660       O  0.68157831  0.63261228  0.90713272    -0.56400
O1661       O  0.68674864  0.62202848  0.96585417    -0.56400
O1662       O  0.68429646  0.68642246  0.93602895    -0.55600
O1663       O  0.83982574  0.87851801  0.95611419    -0.56800
C1664       C  0.83092390  0.87665070  0.90476469     0.75800
O1665       O  0.75039737  0.84221131  0.93341876    -0.57900
C1666       C  0.82077147  0.86986581  0.96716440     0.75800
C1667       C  0.76923549  0.94011875  0.93463506     0.78200
Cd1668     Cd  0.79721895  0.87766556  0.93484625     1.37500
O1669       O  0.84556799  0.87520109  0.91818499    -0.56800
O1670       O  0.79905361  0.93550053  0.93544463    -0.55600
C1671       C  0.76710884  0.81695869  0.93298157     0.78200
O1672       O  0.75195462  0.91548510  0.93403813    -0.58000
O1673       O  0.80077172  0.87821646  0.90540294    -0.56400
O1674       O  0.79176413  0.86693565  0.96327193    -0.56400
O1675       O  0.79710119  0.82041709  0.93284034    -0.55600
O1676       O  0.86537780  0.85225688  0.04280572    -0.56800
C1677       C  0.86411354  0.84522468  0.09405086     0.75800
O1678       O  0.83014405  0.76260533  0.06632138    -0.57900
C1679       C  0.85621329  0.83318967  0.03192353     0.75800
C1680       C  0.92818130  0.78074441  0.06429613     0.78200
Cd1681     Cd  0.86526939  0.81006064  0.06431943     1.37500
O1682       O  0.86391114  0.85954722  0.08054720    -0.56800
O1683       O  0.92418027  0.81031019  0.06226961    -0.55600
C1684       C  0.80433113  0.77852550  0.06683972     0.78200
O1685       O  0.90298921  0.76460073  0.06617147    -0.58000
O1686       O  0.86481774  0.81519486  0.09355114    -0.56400
O1687       O  0.85323118  0.80444961  0.03606663    -0.56400
O1688       O  0.80716986  0.80845224  0.06660973    -0.55600
O1689       O  0.84392938  0.88277134  0.29468063    -0.56800
C1690       C  0.83490873  0.87336787  0.34424379     0.75800
O1691       O  0.75345067  0.91092861  0.31409098    -0.57900
C1692       C  0.82701255  0.87819772  0.28220608     0.75800
C1693       C  0.77073921  0.81226479  0.31451198     0.78200
Cd1694     Cd  0.80032401  0.87425795  0.31404779     1.37500
O1695       O  0.84931083  0.86966619  0.33091397    -0.56800
O1696       O  0.80037008  0.81611597  0.31233390    -0.55600
C1697       C  0.76994862  0.93612251  0.31372280     0.78200
O1698       O  0.75437257  0.83737825  0.31663100    -0.58000
O1699       O  0.80499863  0.87737623  0.34340634    -0.56400
O1700       O  0.79830135  0.87022768  0.28455427    -0.56400
O1701       O  0.79990166  0.93234811  0.31378636    -0.55600
O1702       O  0.85658295  0.89681334  0.20490681    -0.56800
C1703       C  0.86626193  0.90934234  0.15573326     0.75800
O1704       O  0.83100484  0.98921855  0.18578294    -0.57900
C1705       C  0.86299127  0.91230356  0.21757990     0.75800
C1706       C  0.92947587  0.96919517  0.18488867     0.78200
Cd1707     Cd  0.86689027  0.94145684  0.18615385     1.37500
O1708       O  0.86822284  0.89426575  0.16898200    -0.56800
O1709       O  0.92539857  0.93943569  0.18427693    -0.55600
C1710       C  0.80550479  0.97310667  0.18524358     0.78200
O1711       O  0.90443745  0.98612620  0.18614268    -0.58000
O1712       O  0.86505024  0.93933592  0.15666789    -0.56400
O1713       O  0.87310128  0.94030610  0.21557548    -0.56400
O1714       O  0.80894509  0.94328498  0.18517565    -0.55600
O1715       O  0.63967546  0.61552394  0.29524590    -0.56800
C1716       C  0.65291971  0.62571812  0.34527701     0.75800
O1717       O  0.73146417  0.58808461  0.31337963    -0.57900
C1718       C  0.65554983  0.62192072  0.28263176     0.75800
C1719       C  0.71341039  0.68692393  0.31421898     0.78200
Cd1720     Cd  0.68453940  0.62479184  0.31424117     1.37500
O1721       O  0.63755638  0.62565421  0.33206565    -0.56800
O1722       O  0.68354908  0.68304981  0.31289321    -0.55600
C1723       C  0.71494705  0.56289911  0.31354324     0.78200
O1724       O  0.73021083  0.66181880  0.31546554    -0.58000
O1725       O  0.68304211  0.62582396  0.34413703    -0.56400
O1726       O  0.68388891  0.63124564  0.28480388    -0.56400
O1727       O  0.68505388  0.56671581  0.31424295    -0.55600
O1728       O  0.62815033  0.60071803  0.20570795    -0.56800
C1729       C  0.61347877  0.59219534  0.15669535     0.75800
O1730       O  0.65295521  0.51103119  0.18606191    -0.57900
C1731       C  0.61960483  0.58580188  0.21826574     0.75800
C1732       C  0.55471863  0.52697799  0.18518188     0.78200
Cd1733     Cd  0.61595438  0.55760389  0.18659260     1.37500
O1734       O  0.60832793  0.60591702  0.17005311    -0.56800
O1735       O  0.55788205  0.55684649  0.18560419    -0.55600
C1736       C  0.67811322  0.52762309  0.18521427     0.78200
O1737       O  0.58032952  0.51071034  0.18545741    -0.58000
O1738       O  0.61918477  0.56266612  0.15733791    -0.56400
O1739       O  0.60800789  0.55845790  0.21607561    -0.56400
O1740       O  0.67410877  0.55738696  0.18495935    -0.55600
O1741       O  0.88982487  0.87882860  0.45612121    -0.56800
C1742       C  0.90099364  0.87036768  0.40586555     0.75800
O1743       O  0.98071699  0.90736695  0.43634662    -0.57900
C1744       C  0.90711746  0.87573807  0.46861188     0.75800
C1745       C  0.96344982  0.80877677  0.43633900     0.78200
Cd1746     Cd  0.93402353  0.87116610  0.43647077     1.37500
O1747       O  0.88583832  0.87035385  0.41913476    -0.56800
O1748       O  0.93345458  0.81274654  0.43655519    -0.55600
C1749       C  0.96451018  0.93258672  0.43422273     0.78200
O1750       O  0.98011001  0.83386361  0.43598253    -0.58000
O1751       O  0.93114045  0.86991345  0.40690355    -0.56400
O1752       O  0.93624041  0.86931965  0.46617884    -0.56400
O1753       O  0.93464859  0.92911039  0.43303452    -0.55600
O1754       O  0.87765963  0.89539907  0.54593817    -0.56800
C1755       C  0.86128050  0.90648530  0.59489636     0.75800
O1756       O  0.90146340  0.98565393  0.56529923    -0.57900
C1757       C  0.86975863  0.91005422  0.53315877     0.75800
C1758       C  0.80305396  0.97010702  0.56543470     0.78200
Cd1759     Cd  0.86467363  0.93937390  0.56451198     1.37500
O1760       O  0.85787390  0.89204417  0.58159249    -0.56800
O1761       O  0.80651515  0.94026261  0.56642862    -0.55600
C1762       C  0.92669898  0.96893540  0.56634976     0.78200
O1763       O  0.82842841  0.98616414  0.56381404    -0.58000
O1764       O  0.86619302  0.93609034  0.59403222    -0.56400
O1765       O  0.85743679  0.93731865  0.53497241    -0.56400
O1766       O  0.92286472  0.93920171  0.56640275    -0.55600
O1767       O  0.61384812  0.59577167  0.54424355    -0.56800
C1768       C  0.61461332  0.59062160  0.59559641     0.75800
O1769       O  0.57789461  0.50877939  0.56885649    -0.57900
C1770       C  0.60738551  0.57564053  0.53334817     0.75800
C1771       C  0.67640220  0.52610156  0.56641292     0.78200
Cd1772     Cd  0.61402980  0.55501581  0.56620415     1.37500
O1773       O  0.61321998  0.60471762  0.58203616    -0.56800
O1774       O  0.67219098  0.55532725  0.56341140    -0.55600
C1775       C  0.55249226  0.52538652  0.56895300     0.78200
O1776       O  0.65148711  0.51003550  0.56922799    -0.58000
O1777       O  0.61607305  0.56061294  0.59525784    -0.56400
O1778       O  0.60532392  0.54694085  0.53776712    -0.56400
O1779       O  0.55605010  0.55519527  0.56829570    -0.55600
O1780       O  0.59227005  0.62047715  0.45732054    -0.56800
C1781       C  0.58585662  0.62203092  0.40644852     0.75800
O1782       O  0.50348478  0.58365994  0.43361393    -0.57900
C1783       C  0.57377697  0.60958767  0.46808976     0.75800
C1784       C  0.51917586  0.68204785  0.43712788     0.78200
Cd1785     Cd  0.54987074  0.62003090  0.43604702     1.37500
O1786       O  0.60001258  0.62152343  0.42000128    -0.56800
O1787       O  0.54860046  0.67797099  0.43996154    -0.55600
C1788       C  0.52023079  0.55843635  0.43312832     0.78200
O1789       O  0.50339448  0.65715227  0.43406955    -0.58000
O1790       O  0.55568060  0.62176279  0.40686100    -0.56400
O1791       O  0.54494759  0.60554441  0.46411272    -0.56400
O1792       O  0.55020751  0.56206748  0.43343029    -0.55600
C1793       C  0.60598154  0.61981410  0.49314616    -0.20300
C1794       C  0.58475084  0.60069850  0.48437944    -0.08300
C1795       C  0.57260034  0.57301733  0.49153284     0.30500
C1796       C  0.58090059  0.56495138  0.50728846    -0.20300
C1797       C  0.60099916  0.58455480  0.51639929    -0.08300
C1798       C  0.61376020  0.61206095  0.50920231     0.30500
F1799       F  0.63375038  0.63120967  0.51759761    -0.18900
H1800       H  0.61564629  0.64116859  0.48775619     0.18900
H1801       H  0.57084288  0.54361221  0.51252064     0.18900
F1802       F  0.55274312  0.55355756  0.48321744    -0.18800
C1803       C  0.96231426  0.51626242  0.56828233    -0.20300
C1804       C  0.95895008  0.98314627  0.56753116    -0.08300
C1805       C  0.98666007  0.96392686  0.56801990     0.30500
C1806       C  0.51692498  0.97776082  0.56886872    -0.20300
C1807       C  0.52028329  0.51092654  0.56929534    -0.08300
C1808       C  0.99254445  0.53007066  0.56923582     0.30500
F1809       F  0.99448050  0.56222110  0.56994265    -0.18900
H1810       H  0.94147277  0.53160384  0.56809056     0.18900
H1811       H  0.53779476  0.96244261  0.56894467     0.18900
F1812       F  0.98469228  0.93175258  0.56749414    -0.18800
C1813       C  0.74411002  0.96600811  0.56936536    -0.20300
C1814       C  0.77090294  0.98497725  0.56609348    -0.08300
C1815       C  0.76635100  0.51769944  0.56331238     0.30500
C1816       C  0.73559598  0.53083493  0.56352242    -0.20300
C1817       C  0.70877893  0.51175114  0.56656263    -0.08300
C1818       C  0.71339268  0.97914571  0.56962461     0.30500
F1819       F  0.68829750  0.95979955  0.57275197    -0.18900
H1820       H  0.74686883  0.94079712  0.57166729     0.18900
H1821       H  0.73279360  0.55603829  0.56119997     0.18900
F1822       F  0.79145567  0.53701228  0.56017290    -0.18800
C1823       C  0.96042909  0.99118180  0.42919447    -0.20300
C1824       C  0.97924655  0.96454211  0.43332416    -0.08300
C1825       C  0.51174950  0.96906189  0.43690740     0.30500
C1826       C  0.52485915  0.49956759  0.43652949    -0.20300
C1827       C  0.50594266  0.52625885  0.43266272    -0.08300
C1828       C  0.97353698  0.52172194  0.42886529     0.30500
F1829       F  0.95452918  0.54669186  0.42473777    -0.18900
H1830       H  0.93534527  0.98842517  0.42627260     0.18900
H1831       H  0.54987102  0.50235561  0.43959543     0.18900
F1832       F  0.53077982  0.94417192  0.44113126    -0.18800
C1833       C  0.95840169  0.74958493  0.43483172    -0.20300
C1834       C  0.97793495  0.77645954  0.43657448    -0.08300
C1835       C  0.51098811  0.77189534  0.43877488     0.30500
C1836       C  0.52400168  0.74118302  0.43908022    -0.20300
C1837       C  0.50451641  0.71430642  0.43719108    -0.08300
C1838       C  0.97142201  0.71886095  0.43513339     0.30500
F1839       F  0.95152299  0.69372021  0.43349760    -0.18900
H1840       H  0.93284131  0.75231634  0.43319615     0.18900
H1841       H  0.54956123  0.73847917  0.44073788     0.18900
F1842       F  0.53078843  0.79700243  0.44081932    -0.18800
C1843       C  0.85798742  0.90713488  0.50361330    -0.20300
C1844       C  0.87627240  0.89704797  0.51692480    -0.08300
C1845       C  0.90300914  0.87737317  0.51429615     0.30500
C1846       C  0.91219967  0.86950769  0.49855637    -0.20300
C1847       C  0.89462664  0.88060671  0.48517294    -0.08300
C1848       C  0.86681494  0.89874245  0.48788158     0.30500
F1849       F  0.84922501  0.91005369  0.47531846    -0.18900
H1850       H  0.83734805  0.92232069  0.50536369     0.18900
H1851       H  0.93366372  0.85550317  0.49681909     0.18900
F1852       F  0.92161503  0.86762977  0.52683712    -0.18800
C1853       C  0.60322213  0.62051943  0.36152405    -0.20300
C1854       C  0.63635463  0.62522228  0.36110408    -0.08300
C1855       C  0.65296870  0.62881969  0.37582206     0.30500
C1856       C  0.63652186  0.62762327  0.39055224    -0.20300
C1857       C  0.60332153  0.62293468  0.39089743    -0.08300
C1858       C  0.58685441  0.61931760  0.37617622     0.30500
F1859       F  0.55487877  0.61424450  0.37585152    -0.18900
H1860       H  0.58982828  0.61747282  0.35044042     0.18900
H1861       H  0.64977171  0.63057148  0.40169366     0.18900
F1862       F  0.68497523  0.63375227  0.37603995    -0.18800
C1863       C  0.61763521  0.59529285  0.26378369    -0.20300
C1864       C  0.64255758  0.61699394  0.26619389    -0.08300
C1865       C  0.65705745  0.63108627  0.25263184     0.30500
C1866       C  0.64790401  0.62227173  0.23703784    -0.20300
C1867       C  0.62466266  0.59881894  0.23464479    -0.08300
C1868       C  0.60891162  0.58600800  0.24817259     0.30500
F1869       F  0.58581516  0.56378110  0.24636396    -0.18900
H1870       H  0.60604809  0.58415230  0.27401585     0.18900
H1871       H  0.66031224  0.63259969  0.22682559     0.18900
F1872       F  0.68085156  0.65258281  0.25440350    -0.18800
C1873       C  0.73750625  0.53340377  0.18565358    -0.20300
C1874       C  0.71062235  0.51352148  0.18472251    -0.08300
C1875       C  0.71537933  0.98052859  0.18350610     0.30500
C1876       C  0.74628992  0.96784534  0.18356492    -0.20300
C1877       C  0.77317401  0.98764132  0.18477478    -0.08300
C1878       C  0.76846989  0.52070572  0.18567164     0.30500
F1879       F  0.79362287  0.54081052  0.18671829    -0.18900
H1880       H  0.73460090  0.55892318  0.18653267     0.18900
H1881       H  0.74912280  0.94231497  0.18271397     0.18900
F1882       F  0.69027918  0.96041792  0.18222171    -0.18800
C1883       C  0.96474157  0.51672206  0.18452146    -0.20300
C1884       C  0.96170408  0.98353393  0.18431810    -0.08300
C1885       C  0.98960704  0.96464863  0.18383433     0.30500
C1886       C  0.51975528  0.97888406  0.18399451    -0.20300
C1887       C  0.52272809  0.51210811  0.18452191    -0.08300
C1888       C  0.99478664  0.53092601  0.18458957     0.30500
F1889       F  0.99630087  0.56313080  0.18488303    -0.18900
H1890       H  0.94374599  0.53186119  0.18475593     0.18900
H1891       H  0.54081641  0.96382801  0.18381233     0.18900
F1892       F  0.98791365  0.93245670  0.18337554    -0.18800
C1893       C  0.88540568  0.87158742  0.36054143    -0.20300
C1894       C  0.85189238  0.87291977  0.35998436    -0.08300
C1895       C  0.83480885  0.87373300  0.37463098     0.30500
C1896       C  0.85093664  0.87271239  0.38941963    -0.20300
C1897       C  0.88440943  0.87116426  0.39001011    -0.08300
C1898       C  0.90158158  0.87089808  0.37536141     0.30500
F1899       F  0.93399306  0.87006214  0.37528563    -0.18900
H1900       H  0.89918070  0.87120189  0.34947719     0.18900
H1901       H  0.83709811  0.87321782  0.40045823     0.18900
F1902       F  0.80243110  0.87531619  0.37474338    -0.18800
C1903       C  0.77535798  0.99520669  0.31215682    -0.20300
C1904       C  0.75550974  0.96839372  0.31323618    -0.08300
C1905       C  0.72224619  0.97300331  0.31387951     0.30500
C1906       C  0.70938728  0.00375721  0.31378783    -0.20300
C1907       C  0.72927681  0.53058749  0.31306069    -0.08300
C1908       C  0.76249377  0.52595878  0.31204143     0.30500
F1909       F  0.78262790  0.55104939  0.31101824    -0.18900
H1910       H  0.80108360  0.99242199  0.31147848     0.18900
H1911       H  0.68365699  0.50653875  0.31445293     0.18900
F1912       F  0.70208752  0.94791120  0.31477746    -0.18800
C1913       C  0.72299609  0.77671823  0.31634088    -0.20300
C1914       C  0.75615094  0.78014004  0.31449076    -0.08300
C1915       C  0.77504854  0.75257642  0.31253612     0.30500
C1916       C  0.76099431  0.72247895  0.31250273    -0.20300
C1917       C  0.72785753  0.71906854  0.31430462    -0.08300
C1918       C  0.70892151  0.74659812  0.31621980     0.30500
F1919       F  0.67683437  0.74450383  0.31821998    -0.18900
H1920       H  0.70784534  0.79742781  0.31788193     0.18900
H1921       H  0.77613776  0.70176198  0.31096276     0.18900
F1922       F  0.80717165  0.75453951  0.31066214    -0.18800
C1923       C  0.87332562  0.91262839  0.24720217    -0.20300
C1924       C  0.85733914  0.89940683  0.23392603    -0.08300
C1925       C  0.83322811  0.87686768  0.23667349     0.30500
C1926       C  0.82431030  0.86905290  0.25246367    -0.20300
C1927       C  0.83949333  0.88323640  0.26573636    -0.08300
C1928       C  0.86461128  0.90460718  0.26297230     0.30500
F1929       F  0.87917448  0.91956945  0.27545685    -0.18900
H1930       H  0.89180068  0.93018370  0.24537246     0.18900
H1931       H  0.80479058  0.85264921  0.25431180     0.18900
F1932       F  0.81665539  0.86416955  0.22417167    -0.18800
C1933       C  0.86521309  0.84448289  0.12412206    -0.20300
C1934       C  0.86389436  0.86215876  0.10969677    -0.08300
C1935       C  0.86294639  0.89554944  0.11055653     0.30500
C1936       C  0.86359890  0.91069962  0.12557104    -0.20300
C1937       C  0.86532169  0.89294374  0.13997367    -0.08300
C1938       C  0.86602564  0.85958675  0.13909109     0.30500
F1939       F  0.86768379  0.84142241  0.15265116    -0.18900
H1940       H  0.86592567  0.81875240  0.12385487     0.18900
H1941       H  0.86292956  0.93643324  0.12590120     0.18900
F1942       F  0.86159971  0.91362334  0.09696035    -0.18800
C1943       C  0.81704655  0.83504922  0.99094578    -0.20300
C1944       C  0.83124745  0.86144384  0.98360985    -0.08300
C1945       C  0.85421124  0.87890961  0.99218530     0.30500
C1946       C  0.86220077  0.87017338  0.00810793    -0.20300
C1947       C  0.84810594  0.84336145  0.01531935    -0.08300
C1948       C  0.82555542  0.82582594  0.00650194     0.30500
F1949       F  0.81100807  0.80005659  0.01303821    -0.18900
H1950       H  0.79941279  0.82123195  0.98451474     0.18900
H1951       H  0.87956588  0.88398983  0.01468926     0.18900
F1952       F  0.86811682  0.90474698  0.98538608    -0.18800
C1953       C  0.77317589  0.75812220  0.93226448    -0.20300
C1954       C  0.75293631  0.78485369  0.93292713    -0.08300
C1955       C  0.71977602  0.78025471  0.93408766     0.30500
C1956       C  0.70738052  0.74947746  0.93452263    -0.20300
C1957       C  0.72770890  0.72275074  0.93394580    -0.08300
C1958       C  0.76082287  0.72741877  0.93280946     0.30500
F1959       F  0.78139985  0.70241377  0.93239845    -0.18900
H1960       H  0.79885152  0.76091765  0.93147350     0.18900
H1961       H  0.68172620  0.74659449  0.93546134     0.18900
F1962       F  0.69934028  0.80533232  0.93505014    -0.18800
C1963       C  0.76172351  0.53009958  0.93394435    -0.20300
C1964       C  0.72851149  0.53433626  0.93488374    -0.08300
C1965       C  0.70881841  0.00728365  0.93552129     0.30500
C1966       C  0.72221545  0.97681329  0.93528306    -0.20300
C1967       C  0.75542994  0.97257222  0.93448735    -0.08300
C1968       C  0.77512916  0.49959669  0.93373378     0.30500
F1969       F  0.80736668  0.49668147  0.93276361    -0.18900
H1970       H  0.77741444  0.55044978  0.93337556     0.18900
H1971       H  0.70650435  0.95648123  0.93590305     0.18900
F1972       F  0.67659294  0.01011709  0.93664481    -0.18800
C1973       C  0.60985227  0.65827665  0.12539463    -0.20300
C1974       C  0.61392918  0.64115368  0.11097811    -0.08300
C1975       C  0.61793682  0.60798896  0.11178139     0.30500
C1976       C  0.61755391  0.59239750  0.12668326    -0.20300
C1977       C  0.61322689  0.60942524  0.14109831    -0.08300
C1978       C  0.60941668  0.64264915  0.14032852     0.30500
F1979       F  0.60555031  0.66012698  0.15395056    -0.18900
H1980       H  0.60686280  0.68386252  0.12511950     0.18900
H1981       H  0.62080902  0.56684296  0.12691178     0.18900
F1982       F  0.62284465  0.59058472  0.09822458    -0.18800
C1983       C  0.73794644  0.71699086  0.06737853    -0.20300
C1984       C  0.71046466  0.73644289  0.06719442    -0.08300
C1985       C  0.71429191  0.76961133  0.06729717     0.30500
C1986       C  0.74483916  0.78286365  0.06743491    -0.20300
C1987       C  0.77233226  0.76349489  0.06740249    -0.08300
C1988       C  0.76856459  0.73026810  0.06744233     0.30500
F1989       F  0.79432136  0.71053881  0.06736703    -0.18900
H1990       H  0.73578790  0.69136266  0.06730336     0.18900
H1991       H  0.74691167  0.80849427  0.06738850     0.18900
F1992       F  0.68858766  0.78938211  0.06713516    -0.18800
C1993       C  0.51849822  0.76945917  0.06288855    -0.20300
C1994       C  0.52163654  0.73644824  0.06507583    -0.08300
C1995       C  0.99373317  0.71826769  0.06712117     0.30500
C1996       C  0.96360647  0.73285438  0.06682353    -0.20300
C1997       C  0.96045234  0.76582322  0.06452875    -0.08300
C1998       C  0.98835061  0.78405927  0.06261186     0.30500
F1999       F  0.98666656  0.81602134  0.06047896    -0.18900
H2000       H  0.53946862  0.78408976  0.06131252     0.18900
H2001       H  0.94264940  0.71821034  0.06842580     0.18900
F2002       F  0.99539245  0.68638352  0.06953305    -0.18800
C2003       C  0.61084592  0.66333091  0.00376474    -0.20300
C2004       C  0.62839691  0.65128804  0.01691380    -0.08300
C2005       C  0.65400535  0.63034163  0.01397186     0.30500
C2006       C  0.66294694  0.62320558  0.99811512    -0.20300
C2007       C  0.64621955  0.63631507  0.98492791    -0.08300
C2008       C  0.61936542  0.65567536  0.98791387     0.30500
F2009       F  0.60231925  0.66862543  0.97555908    -0.18900
H2010       H  0.59098033  0.67941416  0.00575362     0.18900
H2011       H  0.68361756  0.60813809  0.99615944     0.18900
F2012       F  0.67176720  0.61845233  0.02634466    -0.18800
C2013       C  0.84878338  0.87607993  0.85977864    -0.20300
C2014       C  0.88221931  0.87869028  0.85975364    -0.08300
C2015       C  0.89843142  0.88082984  0.87462533     0.30500
C2016       C  0.88155381  0.87981570  0.88913520    -0.20300
C2017       C  0.84819368  0.87699395  0.88919597    -0.08300
C2018       C  0.83184442  0.87522458  0.87432797     0.30500
F2019       F  0.79958170  0.87233493  0.87378610    -0.18900
H2020       H  0.83570805  0.87432454  0.84851771     0.18900
H2021       H  0.89470378  0.88151414  0.90037327     0.18900
F2022       F  0.93063544  0.88407043  0.87523031    -0.18800
C2023       C  0.85924619  0.84112813  0.62651147    -0.20300
C2024       C  0.86005685  0.85863488  0.64093762    -0.08300
C2025       C  0.86004116  0.89204595  0.64008092     0.30500
C2026       C  0.86011457  0.90738695  0.62507018    -0.20300
C2027       C  0.85990509  0.88982636  0.61064613    -0.08300
C2028       C  0.85903537  0.85645466  0.61152101     0.30500
F2029       F  0.85863367  0.83850252  0.59792811    -0.18900
H2030       H  0.85904564  0.81539151  0.62680086     0.18900
H2031       H  0.86056152  0.93312172  0.62475381     0.18900
F2032       F  0.86060452  0.90996055  0.65368644    -0.18800
C2033       C  0.86119042  0.83702852  0.74768227    -0.20300
C2034       C  0.87898909  0.84824567  0.73449727    -0.08300
C2035       C  0.90474504  0.86881151  0.73732238     0.30500
C2036       C  0.91355087  0.87643196  0.75312016    -0.20300
C2037       C  0.89654732  0.86419476  0.76634782    -0.08300
C2038       C  0.86961080  0.84517721  0.76348203     0.30500
F2039       F  0.85250962  0.83291114  0.77592109    -0.18900
H2040       H  0.84124676  0.82122943  0.74577503     0.18900
H2041       H  0.93427851  0.89120303  0.75501573     0.18900
F2042       F  0.92275409  0.87988653  0.72491931    -0.18800
C2043       C  0.61318386  0.65662078  0.62668611    -0.20300
C2044       C  0.61553262  0.63928525  0.64120009    -0.08300
C2045       C  0.61685726  0.60593310  0.64055941     0.30500
C2046       C  0.61652536  0.59046253  0.62566940    -0.20300
C2047       C  0.61455914  0.60779732  0.61114133    -0.08300
C2048       C  0.61250986  0.64112759  0.61179415     0.30500
F2049       F  0.60977936  0.65882357  0.59811771    -0.18900
H2050       H  0.61173426  0.68233038  0.62683672     0.18900
H2051       H  0.61789260  0.56475039  0.62554431     0.18900
F2052       F  0.61882782  0.58819027  0.65425075    -0.18800
C2053       C  0.99582843  0.71592685  0.68280404    -0.20300
C2054       C  0.52289284  0.73556554  0.68356422    -0.08300
C2055       C  0.51847861  0.76862340  0.68473869     0.30500
C2056       C  0.98769826  0.78156090  0.68520476    -0.20300
C2057       C  0.96062149  0.76195648  0.68452719    -0.08300
C2058       C  0.96500043  0.72888999  0.68327909     0.30500
F2059       F  0.93962254  0.70901726  0.68252358    -0.18900
H2060       H  0.99847735  0.69038000  0.68194350     0.18900
H2061       H  0.98510872  0.80710072  0.68620011     0.18900
F2062       F  0.54380780  0.78853533  0.68563817    -0.18800
C2063       C  0.73899606  0.71553163  0.68768921    -0.20300
C2064       C  0.71165861  0.73488883  0.68611165    -0.08300
C2065       C  0.71555059  0.76798862  0.68481838     0.30500
C2066       C  0.74605342  0.78126750  0.68521117    -0.20300
C2067       C  0.77339520  0.76197092  0.68679818    -0.08300
C2068       C  0.76956893  0.72883129  0.68800616     0.30500
F2069       F  0.79523020  0.70923318  0.68964536    -0.18900
H2070       H  0.73674766  0.68998090  0.68870507     0.18900
H2071       H  0.74822830  0.80682589  0.68420851     0.18900
F2072       F  0.68994180  0.78768625  0.68330997    -0.18800
C2073       C  0.65124742  0.63355969  0.87646356    -0.20300
C2074       C  0.63511151  0.62541671  0.89075772    -0.08300
C2075       C  0.60298393  0.61602469  0.88986009     0.30500
C2076       C  0.58744606  0.61495151  0.87495425    -0.20300
C2077       C  0.60355587  0.62308898  0.86066894    -0.08300
C2078       C  0.63568767  0.63246027  0.86154260     0.30500
F2079       F  0.65188506  0.64128416  0.84807741    -0.18900
H2080       H  0.67596528  0.64103440  0.87682238     0.18900
H2081       H  0.56267532  0.60765139  0.87460365     0.18900
F2082       F  0.58652856  0.60773554  0.90333188    -0.18800
C2083       C  0.52721153  0.74500712  0.81960507    -0.20300
C2084       C  0.50732913  0.71812147  0.81947364    -0.08300
C2085       C  0.97403768  0.72272340  0.81962905     0.30500
C2086       C  0.96113065  0.75344365  0.81948391    -0.20300
C2087       C  0.98096271  0.78032328  0.81926205    -0.08300
C2088       C  0.51427888  0.77578016  0.81957670     0.30500
F2089       F  0.53441799  0.80095086  0.81964569    -0.18900
H2090       H  0.55297714  0.74225431  0.81956266     0.18900
H2091       H  0.93535987  0.75614336  0.81935552     0.18900
F2092       F  0.95383336  0.69761892  0.81971207    -0.18800
C2093       C  0.96227407  0.99422083  0.81826743    -0.20300
C2094       C  0.98068927  0.96762224  0.81386061    -0.08300
C2095       C  0.51278669  0.97217279  0.80941475     0.30500
C2096       C  0.52598503  0.00271526  0.80951491    -0.20300
C2097       C  0.50756199  0.52930514  0.81404878    -0.08300
C2098       C  0.97547256  0.52465557  0.81845422     0.30500
F2099       F  0.95682880  0.54939544  0.82318201    -0.18900
H2100       H  0.93752584  0.49145426  0.82180525     0.18900
H2101       H  0.55075580  0.00553514  0.80602852     0.18900
F2102       F  0.53136344  0.94726026  0.80482399    -0.18800
C2103       C  0.60746154  0.62562008  0.75877633    -0.20300
C2104       C  0.58490662  0.64375881  0.76730320    -0.08300
C2105       C  0.57175321  0.67110039  0.76010119     0.30500
C2106       C  0.58078384  0.68000251  0.74457251    -0.20300
C2107       C  0.60248305  0.66143191  0.73573705    -0.08300
C2108       C  0.61584942  0.63408381  0.74293591     0.30500
F2109       F  0.63706677  0.61577092  0.73474281    -0.18900
H2110       H  0.61782660  0.60451268  0.76419846     0.18900
H2111       H  0.57011415  0.70111502  0.73929095     0.18900
F2112       F  0.55037122  0.68948673  0.76818353    -0.18800
loop_ 
_geom_bond_atom_site_label_1 
_geom_bond_atom_site_label_2 
_geom_bond_distance 
_geom_bond_site_symmetry_2 
_ccdc_geom_bond_type 
O1            C4   1.269       .  A
O1           Cd6   2.487       .  S
C2           O11   1.265       .  A
C2            O7   1.268       .  A
C2          C493   1.475       .  S
O3            C9   1.270       .  A
O3           Cd6   2.483       .  S
C4           O12   1.264       .  A
C4          C520   1.469       .  S
C5           O10   1.268       .  A
C5            O8   1.265       .  A
C5          C513   1.486       .  S
Cd6          O13   2.450       .  S
Cd6          O12   2.408       .  S
Cd6          O11   2.429       .  S
Cd6           O7   2.461       .  S
Cd6          O10   2.475       .  S
Cd6           O8   2.471       .  S
C9           O13   1.265       .  A
C9          C500   1.486       .  S
O14          C17   1.269       .  A
O14         Cd19   2.487       .  S
C15          O24   1.265       .  A
C15          O20   1.269       .  A
C15         C460   1.477       .  S
O16          C22   1.270       .  A
O16         Cd19   2.469       .  S
C17          O25   1.264       .  A
C17         C523   1.474       .  S
C18          O23   1.268       .  A
C18          O21   1.266       .  A
C18         C480   1.483       .  S
Cd19         O26   2.440       .  S
Cd19         O25   2.413       .  S
Cd19         O24   2.424       .  S
Cd19         O20   2.467       .  S
Cd19         O23   2.465       .  S
Cd19         O21   2.457       .  S
C22          O26   1.265       .  A
C22         C470   1.482       .  S
O27          C30   1.266       .  A
O27         Cd32   2.466       .  S
C28          O37   1.265       .  A
C28          O33   1.267       .  A
C28         C440   1.480       .  S
O29          C35   1.268       .  A
O29         Cd32   2.494       .  S
C30          O38   1.265       .  A
C30         C450   1.475       .  S
C31          O36   1.269       .  A
C31          O34   1.266       .  A
C31         C483   1.483       .  S
Cd32         O39   2.439       .  S
Cd32         O38   2.451       .  S
Cd32         O37   2.445       .  S
Cd32         O33   2.472       .  S
Cd32         O36   2.477       .  S
Cd32         O34   2.442       .  S
C35          O39   1.263       .  A
C35         C473   1.482       .  S
O40          C43   1.266       .  A
O40         Cd45   2.475       .  S
C41          O50   1.265       .  A
C41          O46   1.268       .  A
C41         C430   1.480       .  S
O42          C48   1.268       .  A
O42         Cd45   2.497       .  S
C43          O51   1.264       .  A
C43         C453   1.477       .  S
C44          O49   1.268       .  A
C44          O47   1.266       .  A
C44         C510   1.484       .  S
Cd45         O52   2.447       .  S
Cd45         O51   2.443       .  S
Cd45         O50   2.437       .  S
Cd45         O46   2.472       .  S
Cd45         O49   2.483       .  S
Cd45         O47   2.448       .  S
C48          O52   1.263       .  A
C48         C503   1.485       .  S
O53          C56   1.266       .  A
O53         Cd58   2.480       .  S
C54          O63   1.265       .  A
C54          O59   1.268       .  A
C54         C390   1.479       .  S
O55          C61   1.269       .  A
O55         Cd58   2.491       .  S
C56          O64   1.264       .  A
C56         C420   1.477       .  S
C57          O62   1.269       .  A
C57          O60   1.267       .  A
C57         C410   1.488       .  S
Cd58         O65   2.454       .  S
Cd58         O64   2.454       .  S
Cd58         O63   2.449       .  S
Cd58         O59   2.458       .  S
Cd58         O62   2.483       .  S
Cd58         O60   2.467       .  S
C61          O65   1.263       .  A
C61         C400   1.485       .  S
O66          C69   1.267       .  A
O66         Cd71   2.465       .  S
C67          O76   1.265       .  A
C67          O72   1.268       .  A
C67         C490   1.476       .  S
O68          C74   1.270       .  A
O68         Cd71   2.471       .  S
C69          O77   1.265       .  A
C69         C423   1.480       .  S
C70          O75   1.270       .  A
C70          O73   1.265       .  A
C70         C380   1.481       .  S
Cd71         O78   2.430       .  S
Cd71         O77   2.452       .  S
Cd71         O76   2.435       .  S
Cd71         O72   2.444       .  S
Cd71         O75   2.480       .  S
Cd71         O73   2.426       .  S
C74          O78   1.263       .  A
C74         C373   1.479       .  S
O79          C82   1.269       .  A
O79         Cd84   2.505       .  S
C80          O89   1.265       .  A
C80          O85   1.269       .  A
C80         C433   1.479       .  S
O81          C87   1.270       .  A
O81         Cd84   2.473       .  S
C82          O90   1.263       .  A
C82         C360   1.471       .  S
C83          O88   1.268       .  A
C83          O86   1.264       .  A
C83         C383   1.480       .  S
Cd84         O91   2.415       .  S
Cd84         O90   2.406       .  S
Cd84         O89   2.442       .  S
Cd84         O85   2.453       .  S
Cd84         O88   2.469       .  S
Cd84         O86   2.436       .  S
C87          O91   1.265       .  A
C87         C370   1.479       .  S
O92          C95   1.269       .  A
O92         Cd97   2.511       .  S
C93         O102   1.265       .  A
C93          O98   1.268       .  A
C93         C350   1.480       .  S
O94         C100   1.270       .  A
O94         Cd97   2.492       .  S
C95         O103   1.263       .  A
C95         C363   1.477       .  S
C96         O101   1.267       .  A
C96          O99   1.265       .  A
C96         C413   1.487       .  S
Cd97        O104   2.442       .  S
Cd97        O103   2.404       .  S
Cd97        O102   2.430       .  S
Cd97         O98   2.482       .  S
Cd97        O101   2.478       .  S
Cd97         O99   2.473       .  S
C100        O104   1.266       .  A
C100        C403   1.486       .  S
O105        C108   1.267       .  A
O105       Cd110   2.459       .  S
C106        O115   1.265       .  A
C106        O111   1.268       .  A
C106        C310   1.483       .  S
O107        C113   1.269       .  A
O107       Cd110   2.490       .  S
C108        O116   1.265       .  A
C108        C343   1.476       .  S
C109        O114   1.269       .  A
C109        O112   1.265       .  A
C109        C330   1.486       .  S
Cd110       O117   2.444       .  S
Cd110       O116   2.449       .  S
Cd110       O115   2.442       .  S
Cd110       O111   2.486       .  S
Cd110       O114   2.488       .  S
Cd110       O112   2.451       .  S
C113        O117   1.263       .  A
C113        C320   1.484       .  S
O118        C121   1.266       .  A
O118       Cd123   2.473       .  S
C119        O128   1.265       .  A
C119        O124   1.268       .  A
C119        C353   1.478       .  S
O120        C126   1.269       .  A
O120       Cd123   2.503       .  S
C121        O129   1.265       .  A
C121        C340   1.476       .  S
C122        O127   1.269       .  A
C122        O125   1.266       .  A
C122        C300   1.482       .  S
Cd123       O130   2.429       .  S
Cd123       O129   2.449       .  S
Cd123       O128   2.444       .  S
Cd123       O124   2.446       .  S
Cd123       O127   2.457       .  S
Cd123       O125   2.456       .  S
C126        O130   1.262       .  A
C126        C293   1.483       .  S
O131        C134   1.268       .  A
O131       Cd136   2.481       .  S
C132        O141   1.265       .  A
C132        O137   1.268       .  A
C132        C270   1.484       .  S
O133        C139   1.269       .  A
O133       Cd136   2.494       .  S
C134        O142   1.265       .  A
C134        C280   1.480       .  S
C135        O140   1.270       .  A
C135        O138   1.267       .  A
C135        C333   1.485       .  S
Cd136       O143   2.444       .  S
Cd136       O142   2.451       .  S
Cd136       O141   2.476       .  S
Cd136       O137   2.461       .  S
Cd136       O140   2.475       .  S
Cd136       O138   2.454       .  S
C139        O143   1.263       .  A
C139        C323   1.484       .  S
O144        C147   1.266       .  A
O144       Cd149   2.466       .  S
C145        O154   1.265       .  A
C145        O150   1.267       .  A
C145        C393   1.479       .  S
O146        C152   1.269       .  A
O146       Cd149   2.492       .  S
C147        O155   1.265       .  A
C147        C283   1.479       .  S
C148        O153   1.269       .  A
C148        O151   1.265       .  A
C148        C303   1.483       .  S
Cd149       O156   2.439       .  S
Cd149       O155   2.464       .  S
Cd149       O154   2.434       .  S
Cd149       O150   2.466       .  S
Cd149       O153   2.482       .  S
Cd149       O151   2.433       .  S
C152        O156   1.263       .  A
C152        C290   1.483       .  S
O157        C160   1.267       .  A
O157       Cd162   2.486       .  S
C158        O167   1.265       .  A
C158        O163   1.269       .  A
C158        C313   1.484       .  S
O159        C165   1.268       .  A
O159       Cd162   2.485       .  S
C160        O168   1.264       .  A
C160        C263   1.482       .  S
C161        O166   1.269       .  A
C161        O164   1.266       .  A
C161        C250   1.486       .  S
Cd162       O169   2.454       .  S
Cd162       O168   2.462       .  S
Cd162       O167   2.451       .  S
Cd162       O163   2.475       .  S
Cd162       O166   2.482       .  S
Cd162       O164   2.458       .  S
C165        O169   1.264       .  A
C165        C240   1.484       .  S
O170        C173   1.265       .  A
O170       Cd175   2.468       .  S
C171        O180   1.266       .  A
C171        O176   1.268       .  A
C171        C443   1.480       .  S
O172        C178   1.269       .  A
O172       Cd175   2.491       .  S
C173        O181   1.265       .  A
C173        C260   1.478       .  S
C174        O179   1.269       .  A
C174        O177   1.266       .  A
C174        C230   1.483       .  S
Cd175       O182   2.442       .  S
Cd175       O181   2.465       .  S
Cd175       O180   2.448       .  S
Cd175       O176   2.457       .  S
Cd175       O179   2.480       .  S
Cd175       O177   2.441       .  S
C178        O182   1.262       .  A
C178        C220   1.483       .  S
O183        C186   1.269       .  A
O183       Cd188   2.495       .  S
C184        O193   1.264       .  A
C184        O189   1.269       .  A
C184        C463   1.478       .  S
O185        C191   1.270       .  A
O185       Cd188   2.481       .  S
C186        O194   1.264       .  A
C186        C213   1.475       .  S
C187        O192   1.268       .  A
C187        O190   1.265       .  A
C187        C233   1.481       .  S
Cd188       O195   2.434       .  S
Cd188       O194   2.407       .  S
Cd188       O193   2.419       .  S
Cd188       O189   2.472       .  S
Cd188       O192   2.464       .  S
Cd188       O190   2.447       .  S
C191        O195   1.265       .  A
C191        C223   1.483       .  S
O196        C199   1.268       .  A
O196       Cd201   2.499       .  S
C197        O206   1.264       .  A
C197        O202   1.268       .  A
C197        C273   1.482       .  S
O198        C204   1.270       .  A
O198       Cd201   2.488       .  S
C199        O207   1.263       .  A
C199        C210   1.470       .  S
C200        O205   1.268       .  A
C200        O203   1.265       .  A
C200        C253   1.487       .  S
Cd201       O208   2.449       .  S
Cd201       O207   2.409       .  S
Cd201       O206   2.429       .  S
Cd201       O202   2.487       .  S
Cd201       O205   2.494       .  S
Cd201       O203   2.461       .  S
C204        O208   1.266       .  A
C204        C243   1.484       .  S
C209        C210   1.405       .  A
C209        C214   1.405       .  A
C209        H216   1.083       .  S
C210        C211   1.403       .  A
C211        C212   1.390       .  A
C211        F218   1.358       .  S
C212        C213   1.402       .  A
C212        H217   1.083       .  S
C213        C214   1.408       .  A
C214        F215   1.357       .  S
C219        C224   1.398       .  A
C219        C748   1.403   1_545  A
C219        H226   1.083       .  S
C220        C221   1.411       .  A
C220        C747   1.403       .  A
C221       C1278   1.399       .  A
C221        F228   1.358       .  S
C222       C1277   1.399   1_455  A
C222        C751   1.404       .  A
C222        H227   1.083       .  S
C223        C750   1.404   1_545  A
C223       C1280   1.410   1_455  A
C224       C1279   1.410       .  A
C224        F225   1.357       .  S
C229        C230   1.407       .  A
C229        C234   1.398       .  A
C229        H236   1.083       .  S
C230        C759   1.407       .  A
C231        C232   1.399       .  A
C231        C758   1.407   1_545  A
C231        F238   1.357       .  S
C232        C233   1.407       .  A
C232        H237   1.083       .  S
C233        C762   1.407   1_545  A
C234        C761   1.407       .  A
C234        F235   1.358       .  S
C239        C240   1.408       .  A
C239        C772   1.400       .  A
C239        H246   1.084       .  S
C240       C1297   1.407       .  A
C241       C1296   1.407   1_455  A
C241        C770   1.399       .  A
C241        F248   1.357       .  S
C242        C243   1.407   1_565  A
C242        C769   1.399       .  A
C242        H247   1.084   1_565  S
C243       C1300   1.407   1_455  A
C244        C767   1.400   1_545  A
C244       C1299   1.407       .  A
C244        F245   1.357       .  S
C249        C250   1.407       .  A
C249        C254   1.401       .  A
C249        H256   1.084       .  S
C250       C1307   1.408       .  A
C251        C252   1.400       .  A
C251       C1306   1.408   1_455  A
C251        F258   1.357       .  S
C252        C253   1.407       .  A
C252        H257   1.084       .  S
C253       C1310   1.408   1_455  A
C254       C1309   1.408       .  A
C254        F255   1.357       .  S
C259        C260   1.404       .  A
C259        C264   1.400       .  A
C259        H266   1.082       .  S
C260        C261   1.407       .  A
C261        C262   1.399       .  A
C261        F268   1.358       .  S
C262        C263   1.406       .  A
C262        H267   1.082       .  S
C263        C264   1.408       .  A
C264        F265   1.357       .  S
C269        C270   1.403       .  A
C269        C274   1.395       .  A
C269        H276   1.083       .  S
C270        C271   1.411       .  A
C271        C272   1.402       .  A
C271        F278   1.357       .  S
C272        C273   1.406       .  A
C272        H277   1.083       .  S
C273        C274   1.408       .  A
C274        F275   1.357       .  S
C279        C280   1.405       .  A
C279        C284   1.400       .  A
C279        H286   1.083       .  S
C280        C281   1.408       .  A
C281        C282   1.398       .  A
C281        F288   1.357       .  S
C282        C283   1.404       .  A
C282        H287   1.084       .  S
C283        C284   1.408       .  A
C284        F285   1.357       .  S
C289        C290   1.408       .  A
C289        C294   1.400       .  A
C289        H296   1.083       .  S
C290        C819   1.405   1_545  A
C291        C292   1.397       .  A
C291        C818   1.405       .  A
C291        F298   1.357       .  S
C292        C293   1.408       .  A
C292        H297   1.083       .  S
C293        C822   1.406       .  A
C294        C821   1.406   1_545  A
C294        F295   1.357       .  S
C299        C304   1.396       .  A
C299        C828   1.403   1_545  A
C299        H306   1.083       .  S
C300        C301   1.410       .  A
C300        C827   1.403       .  A
C301       C1358   1.400       .  A
C301        F308   1.357       .  S
C302       C1357   1.400   1_455  A
C302        C831   1.405       .  A
C302        H307   1.083       .  S
C303        C830   1.405   1_545  A
C303       C1360   1.409   1_455  A
C304       C1359   1.409       .  A
C304        F305   1.357       .  S
C309        C310   1.405       .  A
C309        C314   1.401       .  A
C309        H316   1.083       .  S
C310        C311   1.409       .  A
C311        C312   1.398       .  A
C311        F318   1.357       .  S
C312        C313   1.404       .  A
C312        H317   1.083       .  S
C313        C314   1.411       .  A
C314        F315   1.358       .  S
C319        C320   1.408       .  A
C319        C852   1.399       .  A
C319        H326   1.085       .  S
C320        C321   1.406       .  A
C321        C322   1.399       .  A
C321        F328   1.357       .  S
C322        C851   1.408       .  A
C322        H855   1.085       .  S
C323        C324   1.406       .  A
C323        C850   1.408       .  A
C324        C847   1.399   1_545  A
C324        F325   1.357       .  S
H327        C850   1.085       .  S
C329        C330   1.405       .  A
C329        C334   1.401       .  A
C329        H336   1.083       .  S
C330        C331   1.410       .  A
C331        C332   1.399       .  A
C331        F338   1.357       .  S
C332        C333   1.404       .  A
C332        H337   1.083       .  S
C333        C334   1.410       .  A
C334        F335   1.357       .  S
C339        C340   1.404       .  A
C339        C344   1.397       .  A
C339        H346   1.083       .  S
C340        C341   1.407       .  A
C341        C342   1.399       .  A
C341        F348   1.358       .  S
C342        C343   1.405       .  A
C342        H347   1.083       .  S
C343        C344   1.406       .  A
C344        F345   1.357       .  S
C349        C350   1.406       .  A
C349        C354   1.395       .  A
C349        H356   1.083       .  S
C350        C351   1.407       .  A
C351        C352   1.399       .  A
C351        F358   1.357       .  S
C352        C353   1.407       .  A
C352        H357   1.084       .  S
C353        C354   1.406       .  A
C354        F355   1.357       .  S
C359        C360   1.400       .  A
C359        C364   1.389   1_556  A
C359        H366   1.083       .  S
C360        C361   1.406       .  A
C361        C362   1.407   1_556  A
C361        F368   1.357       .  S
C362        C363   1.408       .  A
C362        H367   1.081       .  S
C363        C364   1.406       .  A
C364        F365   1.358       .  S
C369        C370   1.406       .  A
C369        C374   1.395       .  A
C369        H376   1.084       .  S
C370        C371   1.406       .  A
C371        C372   1.398       .  A
C371        F378   1.358       .  S
C372        C373   1.408       .  A
C372        H377   1.085       .  S
C373        C374   1.405       .  A
C374        F375   1.357       .  S
C379        C380   1.404       .  A
C379        C384   1.398   1_545  A
C379        H386   1.083       .  S
C380        C909   1.410       .  A
C381        C382   1.397       .  A
C381        C908   1.410       .  A
C381        F388   1.357       .  S
C382        C383   1.403       .  A
C382        H387   1.083       .  S
C383        C912   1.410       .  A
C384        C911   1.410       .  A
C384        F385   1.357       .  S
C389        C390   1.406       .  A
C389        C394   1.399       .  A
C389        H396   1.083       .  S
C390        C391   1.406       .  A
C391        C392   1.395       .  A
C391        F398   1.357       .  S
C392        C393   1.405       .  A
C392        H397   1.083       .  S
C393        C394   1.407       .  A
C394        F395   1.358       .  S
C399        C400   1.409       .  A
C399        C404   1.401       .  A
C399        H406   1.083       .  S
C400        C401   1.406       .  A
C401        C402   1.398       .  A
C401        F408   1.357       .  S
C402        C403   1.407       .  A
C402        H407   1.082       .  S
C403        C404   1.408       .  A
C404        F405   1.358       .  S
C409        C410   1.406       .  A
C409       C1470   1.401   1_455  A
C409        H416   1.083       .  S
C410       C1467   1.410   1_455  A
C411        C412   1.400       .  A
C411       C1466   1.410       .  A
C411        F418   1.357       .  S
C412        C413   1.405       .  A
C412        H417   1.083       .  S
C413        C414   1.410       .  A
C414       C1465   1.401       .  A
C414        F415   1.357       .  S
C419        C420   1.404       .  A
C419        C424   1.398   1_554  A
C419        H426   1.083       .  S
C420        C421   1.406       .  A
C421        C422   1.399   1_554  A
C421        F428   1.358       .  S
C422        C423   1.406       .  A
C422        H427   1.083       .  S
C423        C424   1.408       .  A
C424        F425   1.357       .  S
C429        C430   1.405       .  A
C429        C434   1.399       .  A
C429        H436   1.083       .  S
C430        C431   1.408       .  A
C431        C432   1.395       .  A
C431        F438   1.357       .  S
C432        C433   1.403       .  A
C432        H437   1.083       .  S
C433        C434   1.410       .  A
C434        F435   1.358       .  S
C439        C440   1.405       .  A
C439        C444   1.397       .  A
C439        H446   1.083       .  S
C440        C441   1.407       .  A
C441        C442   1.398       .  A
C441        F448   1.357       .  S
C442        C443   1.406       .  A
C442        H447   1.083       .  S
C443        C444   1.407       .  A
C444        F445   1.357       .  S
C449        C450   1.404       .  A
C449        C454   1.398       .  A
C449        H456   1.082       .  S
C450        C451   1.406       .  A
C451        C452   1.397       .  A
C451        F458   1.358       .  S
C452        C453   1.405       .  A
C452        H457   1.082       .  S
C453        C454   1.407       .  A
C454        F455   1.357       .  S
C459        C460   1.407       .  A
C459        C464   1.397       .  A
C459        H466   1.083       .  S
C460        C461   1.405       .  A
C461        C462   1.396       .  A
C461        F468   1.357       .  S
C462        C463   1.407       .  A
C462        H467   1.083       .  S
C463        C464   1.406       .  A
C464        F465   1.357       .  S
C469        C474   1.399       .  A
C469       C1526   1.408       .  A
C469        H476   1.083       .  S
C470        C471   1.406       .  A
C470       C1525   1.408   1_455  A
C471       C1528   1.397   1_455  A
C471        F478   1.357       .  S
C472        C473   1.407       .  A
C472       C1527   1.397       .  A
C472        H477   1.083       .  S
C473        C474   1.407       .  A
C474        F475   1.357       .  S
C479        C480   1.407       .  A
C479        C484   1.400       .  A
C479        H486   1.083       .  S
C480        C481   1.407       .  A
C481        C482   1.397       .  A
C481        F488   1.357       .  S
C482        C483   1.406       .  A
C482        H487   1.083       .  S
C483        C484   1.408       .  A
C484        F485   1.357       .  S
C489        C490   1.406       .  A
C489        C494   1.397       .  A
C489        H496   1.084       .  S
C490        C491   1.406       .  A
C491        C492   1.395       .  A
C491        F498   1.357       .  S
C492        C493   1.405       .  A
C492        H497   1.084       .  S
C493        C494   1.406       .  A
C494        F495   1.357       .  S
C499        C500   1.408       .  A
C499        C504   1.401       .  A
C499        H506   1.085       .  S
C500       C1557   1.407   1_455  A
C501        C502   1.398       .  A
C501       C1556   1.407       .  A
C501        F508   1.357       .  S
C502        C503   1.407       .  A
C502        H507   1.085       .  S
C503       C1560   1.407       .  A
C504       C1559   1.407   1_455  A
C504        F505   1.357       .  S
C509        C510   1.405       .  A
C509       C1042   1.398       .  A
C509       H1044   1.084       .  S
C510       C1567   1.408       .  A
C511        C512   1.402       .  A
C511       C1566   1.408   1_455  A
C511        F518   1.358       .  S
C512       C1041   1.408       .  A
C512        H517   1.084       .  S
C513       C1040   1.408       .  A
C513       C1570   1.407   1_455  A
C514       C1037   1.398   1_545  A
C514       C1569   1.407       .  A
C514        F515   1.357       .  S
H516       C1037   1.084       .  S
C519        C520   1.404       .  A
C519        C524   1.403       .  A
C519        H526   1.082       .  S
C520        C521   1.404       .  A
C521        C522   1.391       .  A
C521        F528   1.359       .  S
C522        C523   1.403       .  A
C522        H527   1.083       .  S
C523        C524   1.407       .  A
C524        F525   1.357       .  S
O529        C532   1.269       .  A
O529       Cd534   2.487       .  S
C530        O539   1.265       .  A
C530        O535   1.268       .  A
C530       C1021   1.475       .  S
O531        C537   1.270       .  A
O531       Cd534   2.483       .  S
C532        O540   1.264       .  A
C532       C1048   1.469       .  S
C533        O538   1.268       .  A
C533        O536   1.265       .  A
C533       C1041   1.486       .  S
Cd534       O541   2.450       .  S
Cd534       O540   2.408       .  S
Cd534       O539   2.429       .  S
Cd534       O535   2.461       .  S
Cd534       O538   2.475       .  S
Cd534       O536   2.471       .  S
C537        O541   1.265       .  A
C537       C1028   1.486       .  S
O542        C545   1.269       .  A
O542       Cd547   2.487       .  S
C543        O552   1.265       .  A
C543        O548   1.269       .  A
C543        C988   1.477       .  S
O544        C550   1.270       .  A
O544       Cd547   2.469       .  S
C545        O553   1.264       .  A
C545       C1051   1.474       .  S
C546        O551   1.268       .  A
C546        O549   1.266       .  A
C546       C1008   1.483       .  S
Cd547       O554   2.440       .  S
Cd547       O553   2.413       .  S
Cd547       O552   2.424       .  S
Cd547       O548   2.467       .  S
Cd547       O551   2.465       .  S
Cd547       O549   2.457       .  S
C550        O554   1.265       .  A
C550        C998   1.482       .  S
O555        C558   1.266       .  A
O555       Cd560   2.466       .  S
C556        O565   1.265       .  A
C556        O561   1.267       .  A
C556        C968   1.480       .  S
O557        C563   1.268       .  A
O557       Cd560   2.494       .  S
C558        O566   1.265       .  A
C558        C978   1.475       .  S
C559        O564   1.269       .  A
C559        O562   1.266       .  A
C559       C1011   1.483       .  S
Cd560       O567   2.439       .  S
Cd560       O566   2.451       .  S
Cd560       O565   2.445       .  S
Cd560       O561   2.472       .  S
Cd560       O564   2.477       .  S
Cd560       O562   2.442       .  S
C563        O567   1.263       .  A
C563       C1001   1.482       .  S
O568        C571   1.266       .  A
O568       Cd573   2.475       .  S
C569        O578   1.265       .  A
C569        O574   1.268       .  A
C569        C958   1.480       .  S
O570        C576   1.268       .  A
O570       Cd573   2.497       .  S
C571        O579   1.264       .  A
C571        C981   1.477       .  S
C572        O577   1.268       .  A
C572        O575   1.266       .  A
C572       C1038   1.484       .  S
Cd573       O580   2.447       .  S
Cd573       O579   2.443       .  S
Cd573       O578   2.437       .  S
Cd573       O574   2.472       .  S
Cd573       O577   2.483       .  S
Cd573       O575   2.448       .  S
C576        O580   1.263       .  A
C576       C1031   1.485       .  S
O581        C584   1.266       .  A
O581       Cd586   2.480       .  S
C582        O591   1.265       .  A
C582        O587   1.268       .  A
C582        C918   1.479       .  S
O583        C589   1.269       .  A
O583       Cd586   2.491       .  S
C584        O592   1.264       .  A
C584        C948   1.477       .  S
C585        O590   1.269       .  A
C585        O588   1.267       .  A
C585        C938   1.488       .  S
Cd586       O593   2.454       .  S
Cd586       O592   2.454       .  S
Cd586       O591   2.449       .  S
Cd586       O587   2.458       .  S
Cd586       O590   2.483       .  S
Cd586       O588   2.467       .  S
C589        O593   1.263       .  A
C589        C928   1.485       .  S
O594        C597   1.267       .  A
O594       Cd599   2.465       .  S
C595        O604   1.265       .  A
C595        O600   1.268       .  A
C595       C1018   1.476       .  S
O596        C602   1.270       .  A
O596       Cd599   2.471       .  S
C597        O605   1.265       .  A
C597        C951   1.480       .  S
C598        O603   1.270       .  A
C598        O601   1.265       .  A
C598        C908   1.481       .  S
Cd599       O606   2.430       .  S
Cd599       O605   2.452       .  S
Cd599       O604   2.435       .  S
Cd599       O600   2.444       .  S
Cd599       O603   2.480       .  S
Cd599       O601   2.426       .  S
C602        O606   1.263       .  A
C602        C901   1.479       .  S
O607        C610   1.269       .  A
O607       Cd612   2.505       .  S
C608        O617   1.265       .  A
C608        O613   1.269       .  A
C608        C961   1.479       .  S
O609        C615   1.270       .  A
O609       Cd612   2.473       .  S
C610        O618   1.263       .  A
C610        C888   1.471       .  S
C611        O616   1.268       .  A
C611        O614   1.264       .  A
C611        C911   1.480       .  S
Cd612       O619   2.415       .  S
Cd612       O618   2.406       .  S
Cd612       O617   2.442       .  S
Cd612       O613   2.453       .  S
Cd612       O616   2.469       .  S
Cd612       O614   2.436       .  S
C615        O619   1.265       .  A
C615        C898   1.479       .  S
O620        C623   1.269       .  A
O620       Cd625   2.511       .  S
C621        O630   1.265       .  A
C621        O626   1.268       .  A
C621        C878   1.480       .  S
O622        C628   1.270       .  A
O622       Cd625   2.492       .  S
C623        O631   1.263       .  A
C623        C891   1.477       .  S
C624        O629   1.267       .  A
C624        O627   1.265       .  A
C624        C941   1.487       .  S
Cd625       O632   2.442       .  S
Cd625       O631   2.404       .  S
Cd625       O630   2.430       .  S
Cd625       O626   2.482       .  S
Cd625       O629   2.478       .  S
Cd625       O627   2.473       .  S
C628        O632   1.266       .  A
C628        C931   1.486       .  S
O633        C636   1.267       .  A
O633       Cd638   2.459       .  S
C634        O643   1.265       .  A
C634        O639   1.268       .  A
C634        C838   1.483       .  S
O635        C641   1.269       .  A
O635       Cd638   2.490       .  S
C636        O644   1.265       .  A
C636        C871   1.476       .  S
C637        O642   1.269       .  A
C637        O640   1.265       .  A
C637        C858   1.486       .  S
Cd638       O645   2.444       .  S
Cd638       O644   2.449       .  S
Cd638       O643   2.442       .  S
Cd638       O639   2.486       .  S
Cd638       O642   2.488       .  S
Cd638       O640   2.451       .  S
C641        O645   1.263       .  A
C641        C848   1.484       .  S
O646        C649   1.266       .  A
O646       Cd651   2.473       .  S
C647        O656   1.265       .  A
C647        O652   1.268       .  A
C647        C881   1.478       .  S
O648        C654   1.269       .  A
O648       Cd651   2.503       .  S
C649        O657   1.265       .  A
C649        C868   1.476       .  S
C650        O655   1.269       .  A
C650        O653   1.266       .  A
C650        C828   1.482       .  S
Cd651       O658   2.429       .  S
Cd651       O657   2.449       .  S
Cd651       O656   2.444       .  S
Cd651       O652   2.446       .  S
Cd651       O655   2.457       .  S
Cd651       O653   2.456       .  S
C654        O658   1.262       .  A
C654        C821   1.483       .  S
O659        C662   1.268       .  A
O659       Cd664   2.481       .  S
C660        O669   1.265       .  A
C660        O665   1.268       .  A
C660        C798   1.484       .  S
O661        C667   1.269       .  A
O661       Cd664   2.494       .  S
C662        O670   1.265       .  A
C662        C808   1.480       .  S
C663        O668   1.270       .  A
C663        O666   1.267       .  A
C663        C861   1.485       .  S
Cd664       O671   2.444       .  S
Cd664       O670   2.451       .  S
Cd664       O669   2.476       .  S
Cd664       O665   2.461       .  S
Cd664       O668   2.475       .  S
Cd664       O666   2.454       .  S
C667        O671   1.263       .  A
C667        C851   1.484       .  S
O672        C675   1.266       .  A
O672       Cd677   2.466       .  S
C673        O682   1.265       .  A
C673        O678   1.267       .  A
C673        C921   1.479       .  S
O674        C680   1.269       .  A
O674       Cd677   2.492       .  S
C675        O683   1.265       .  A
C675        C811   1.479       .  S
C676        O681   1.269       .  A
C676        O679   1.265       .  A
C676        C831   1.483       .  S
Cd677       O684   2.439       .  S
Cd677       O683   2.464       .  S
Cd677       O682   2.434       .  S
Cd677       O678   2.466       .  S
Cd677       O681   2.482       .  S
Cd677       O679   2.433       .  S
C680        O684   1.263       .  A
C680        C818   1.483       .  S
O685        C688   1.267       .  A
O685       Cd690   2.486       .  S
C686        O695   1.265       .  A
C686        O691   1.269       .  A
C686        C841   1.484       .  S
O687        C693   1.268       .  A
O687       Cd690   2.485       .  S
C688        O696   1.264       .  A
C688        C791   1.482       .  S
C689        O694   1.269       .  A
C689        O692   1.266       .  A
C689        C778   1.486       .  S
Cd690       O697   2.454       .  S
Cd690       O696   2.462       .  S
Cd690       O695   2.451       .  S
Cd690       O691   2.475       .  S
Cd690       O694   2.482       .  S
Cd690       O692   2.458       .  S
C693        O697   1.264       .  A
C693        C768   1.484       .  S
O698        C701   1.265       .  A
O698       Cd703   2.468       .  S
C699        O708   1.266       .  A
C699        O704   1.268       .  A
C699        C971   1.480       .  S
O700        C706   1.269       .  A
O700       Cd703   2.491       .  S
C701        O709   1.265       .  A
C701        C788   1.478       .  S
C702        O707   1.269       .  A
C702        O705   1.266       .  A
C702        C758   1.483       .  S
Cd703       O710   2.442       .  S
Cd703       O709   2.465       .  S
Cd703       O708   2.448       .  S
Cd703       O704   2.457       .  S
Cd703       O707   2.480       .  S
Cd703       O705   2.441       .  S
C706        O710   1.262       .  A
C706        C748   1.483       .  S
O711        C714   1.269       .  A
O711       Cd716   2.495       .  S
C712        O721   1.264       .  A
C712        O717   1.269       .  A
C712        C991   1.478       .  S
O713        C719   1.270       .  A
O713       Cd716   2.481       .  S
C714        O722   1.264       .  A
C714        C741   1.475       .  S
C715        O720   1.268       .  A
C715        O718   1.265       .  A
C715        C761   1.481       .  S
Cd716       O723   2.434       .  S
Cd716       O722   2.407       .  S
Cd716       O721   2.419       .  S
Cd716       O717   2.472       .  S
Cd716       O720   2.464       .  S
Cd716       O718   2.447       .  S
C719        O723   1.265       .  A
C719        C751   1.483       .  S
O724        C727   1.268       .  A
O724       Cd729   2.499       .  S
C725        O734   1.264       .  A
C725        O730   1.268       .  A
C725        C801   1.482       .  S
O726        C732   1.270       .  A
O726       Cd729   2.488       .  S
C727        O735   1.263       .  A
C727        C738   1.470       .  S
C728        O733   1.268       .  A
C728        O731   1.265       .  A
C728        C781   1.487       .  S
Cd729       O736   2.449       .  S
Cd729       O735   2.409       .  S
Cd729       O734   2.429       .  S
Cd729       O730   2.487       .  S
Cd729       O733   2.494       .  S
Cd729       O731   2.461       .  S
C732        O736   1.266       .  A
C732        C771   1.484       .  S
C737        C738   1.405       .  A
C737        C742   1.405       .  A
C737        H744   1.083       .  S
C738        C739   1.403       .  A
C739        C740   1.390       .  A
C739        F746   1.358       .  S
C740        C741   1.402       .  A
C740        H745   1.083       .  S
C741        C742   1.408       .  A
C742        F743   1.357       .  S
C747        C752   1.398       .  A
C747        H754   1.083       .  S
C748        C749   1.411       .  A
C749       C1806   1.399       .  A
C749        F756   1.358       .  S
C750       C1805   1.399   1_455  A
C750        H755   1.083       .  S
C751       C1808   1.410   1_455  A
C752       C1807   1.410       .  A
C752        F753   1.357       .  S
C757        C758   1.407       .  A
C757        C762   1.398       .  A
C757        H764   1.083       .  S
C759        C760   1.399       .  A
C759        F766   1.357       .  S
C760        C761   1.407       .  A
C760        H765   1.083       .  S
C762        F763   1.358       .  S
C767        C768   1.408       .  A
C767        H774   1.084       .  S
C768       C1825   1.407       .  A
C769       C1824   1.407   1_455  A
C769        F776   1.357       .  S
C770        C771   1.407       .  A
C770        H775   1.084       .  S
C771       C1828   1.407   1_455  A
C772       C1827   1.407       .  A
C772        F773   1.357       .  S
C777        C778   1.407       .  A
C777        C782   1.401       .  A
C777        H784   1.084       .  S
C778       C1835   1.408       .  A
C779       C1834   1.408   1_455  A
C779        C780   1.400       .  A
C779        F786   1.357       .  S
C780        C781   1.407       .  A
C780        H785   1.084       .  S
C781       C1838   1.408   1_455  A
C782       C1837   1.408       .  A
C782        F783   1.357       .  S
C787        C788   1.404       .  A
C787        C792   1.400       .  A
C787        H794   1.082       .  S
C788        C789   1.407       .  A
C789        C790   1.399       .  A
C789        F796   1.358       .  S
C790        C791   1.406       .  A
C790        H795   1.082       .  S
C791        C792   1.408       .  A
C792        F793   1.357       .  S
C797        C798   1.403       .  A
C797        C802   1.395       .  A
C797        H804   1.083       .  S
C798        C799   1.411       .  A
C799        C800   1.402       .  A
C799        F806   1.357       .  S
C800        C801   1.406       .  A
C800        H805   1.083       .  S
C801        C802   1.408       .  A
C802        F803   1.357       .  S
C807        C808   1.405       .  A
C807        C812   1.400       .  A
C807        H814   1.083       .  S
C808        C809   1.408       .  A
C809        C810   1.398       .  A
C809        F816   1.357       .  S
C810        C811   1.404       .  A
C810        H815   1.084       .  S
C811        C812   1.408       .  A
C812        F813   1.357       .  S
C817        C818   1.408       .  A
C817        C822   1.400       .  A
C817        H824   1.083       .  S
C819        C820   1.397       .  A
C819        F826   1.357       .  S
C820        C821   1.408       .  A
C820        H825   1.083       .  S
C822        F823   1.357       .  S
C827        C832   1.396       .  A
C827        H834   1.083       .  S
C828        C829   1.410       .  A
C829       C1886   1.400       .  A
C829        F836   1.357       .  S
C830       C1885   1.400   1_455  A
C830        H835   1.083       .  S
C831       C1888   1.409   1_455  A
C832       C1887   1.409       .  A
C832        F833   1.357       .  S
C837        C838   1.405       .  A
C837        C842   1.401       .  A
C837        H844   1.083       .  S
C838        C839   1.409       .  A
C839        C840   1.398       .  A
C839        F846   1.357       .  S
C840        C841   1.404       .  A
C840        H845   1.083       .  S
C841        C842   1.411       .  A
C842        F843   1.358       .  S
C847        C848   1.408       .  A
C847        H854   1.085       .  S
C848        C849   1.406       .  A
C849        C850   1.399   1_565  A
C849        F856   1.357       .  S
C851        C852   1.406       .  A
C852        F853   1.357       .  S
C857        C858   1.405       .  A
C857        C862   1.401       .  A
C857        H864   1.083       .  S
C858        C859   1.410       .  A
C859        C860   1.399       .  A
C859        F866   1.357       .  S
C860        C861   1.404       .  A
C860        H865   1.083       .  S
C861        C862   1.410       .  A
C862        F863   1.357       .  S
C867        C868   1.404       .  A
C867        C872   1.397       .  A
C867        H874   1.083       .  S
C868        C869   1.407       .  A
C869        C870   1.399       .  A
C869        F876   1.358       .  S
C870        C871   1.405       .  A
C870        H875   1.083       .  S
C871        C872   1.406       .  A
C872        F873   1.357       .  S
C877        C878   1.406       .  A
C877        C882   1.395       .  A
C877        H884   1.083       .  S
C878        C879   1.407       .  A
C879        C880   1.399       .  A
C879        F886   1.357       .  S
C880        C881   1.407       .  A
C880        H885   1.084       .  S
C881        C882   1.406       .  A
C882        F883   1.357       .  S
C887        C888   1.400       .  A
C887        C892   1.389   1_556  A
C887        H894   1.083       .  S
C888        C889   1.406       .  A
C889        C890   1.407   1_556  A
C889        F896   1.357       .  S
C890        C891   1.408       .  A
C890        H895   1.081       .  S
C891        C892   1.406       .  A
C892        F893   1.358       .  S
C897        C898   1.406       .  A
C897        C902   1.395       .  A
C897        H904   1.084       .  S
C898        C899   1.406       .  A
C899        C900   1.398       .  A
C899        F906   1.358       .  S
C900        C901   1.408       .  A
C900        H905   1.085       .  S
C901        C902   1.405       .  A
C902        F903   1.357       .  S
C907        C908   1.404       .  A
C907        C912   1.398       .  A
C907        H914   1.083       .  S
C909        C910   1.397   1_545  A
C909        F916   1.357       .  S
C910        C911   1.403       .  A
C910        H915   1.083       .  S
C912        F913   1.357       .  S
C917        C918   1.406       .  A
C917        C922   1.399       .  A
C917        H924   1.083       .  S
C918        C919   1.406       .  A
C919        C920   1.395       .  A
C919        F926   1.357       .  S
C920        C921   1.405       .  A
C920        H925   1.083       .  S
C921        C922   1.408       .  A
C922        F923   1.358       .  S
C927        C928   1.409       .  A
C927        C932   1.401       .  A
C927        H934   1.083       .  S
C928        C929   1.406       .  A
C929        C930   1.398       .  A
C929        F936   1.357       .  S
C930        C931   1.407       .  A
C930        H935   1.082       .  S
C931        C932   1.408       .  A
C932        F933   1.358       .  S
C937        C938   1.406       .  A
C937       C1998   1.401   1_455  A
C937        H944   1.083       .  S
C938       C1995   1.410   1_455  A
C939       C1994   1.410       .  A
C939        C940   1.400       .  A
C939        F946   1.357       .  S
C940        C941   1.405       .  A
C940        H945   1.083       .  S
C941        C942   1.410       .  A
C942       C1993   1.401       .  A
C942        F943   1.357       .  S
C947        C948   1.404       .  A
C947        C952   1.398   1_554  A
C947        H954   1.083       .  S
C948        C949   1.406       .  A
C949        C950   1.399   1_554  A
C949        F956   1.358       .  S
C950        C951   1.406       .  A
C950        H955   1.083       .  S
C951        C952   1.408       .  A
C952        F953   1.357       .  S
C957        C958   1.405       .  A
C957        C962   1.399       .  A
C957        H964   1.083       .  S
C958        C959   1.408       .  A
C959        C960   1.395       .  A
C959        F966   1.357       .  S
C960        C961   1.403       .  A
C960        H965   1.083       .  S
C961        C962   1.410       .  A
C962        F963   1.358       .  S
C967        C968   1.405       .  A
C967        C972   1.397       .  A
C967        H974   1.083       .  S
C968        C969   1.407       .  A
C969        C970   1.398       .  A
C969        F976   1.357       .  S
C970        C971   1.406       .  A
C970        H975   1.083       .  S
C971        C972   1.407       .  A
C972        F973   1.357       .  S
C977        C978   1.404       .  A
C977        C982   1.398       .  A
C977        H984   1.082       .  S
C978        C979   1.406       .  A
C979        C980   1.397       .  A
C979        F986   1.358       .  S
C980        C981   1.405       .  A
C980        H985   1.082       .  S
C981        C982   1.407       .  A
C982        F983   1.357       .  S
C987        C988   1.407       .  A
C987        C992   1.397       .  A
C987        H994   1.083       .  S
C988        C989   1.405       .  A
C989        C990   1.396       .  A
C989        F996   1.357       .  S
C990        C991   1.407       .  A
C990        H995   1.083       .  S
C991        C992   1.406       .  A
C992        F993   1.357       .  S
C997       C2054   1.408       .  A
C997       C1002   1.399       .  A
C997       H1004   1.083       .  S
C998       C2053   1.408   1_455  A
C998        C999   1.406       .  A
C999       C2056   1.397   1_455  A
C999       F1006   1.357       .  S
C1000      C2055   1.397       .  A
C1000      C1001   1.407       .  A
C1000      H1005   1.083       .  S
C1001      C1002   1.407       .  A
C1002      F1003   1.357       .  S
C1007      C1008   1.407       .  A
C1007      C1012   1.400       .  A
C1007      H1014   1.083       .  S
C1008      C1009   1.407       .  A
C1009      C1010   1.397       .  A
C1009      F1016   1.357       .  S
C1010      C1011   1.406       .  A
C1010      H1015   1.083       .  S
C1011      C1012   1.408       .  A
C1012      F1013   1.357       .  S
C1017      C1018   1.406       .  A
C1017      C1022   1.397       .  A
C1017      H1024   1.084       .  S
C1018      C1019   1.406       .  A
C1019      C1020   1.395       .  A
C1019      F1026   1.357       .  S
C1020      C1021   1.405       .  A
C1020      H1025   1.084       .  S
C1021      C1022   1.406       .  A
C1022      F1023   1.357       .  S
C1027      C1028   1.408       .  A
C1027      C1032   1.401       .  A
C1027      H1034   1.085       .  S
C1028      C2085   1.407   1_455  A
C1029      C2084   1.407       .  A
C1029      C1030   1.398       .  A
C1029      F1036   1.357       .  S
C1030      C1031   1.407       .  A
C1030      H1035   1.085       .  S
C1031      C2088   1.407       .  A
C1032      C2087   1.407   1_455  A
C1032      F1033   1.357       .  S
C1037      C1038   1.405       .  A
C1038      C2095   1.408       .  A
C1039      C2094   1.408   1_455  A
C1039      C1040   1.402   1_565  A
C1039      F1046   1.358       .  S
C1040      H1045   1.084       .  S
C1041      C2098   1.407   1_455  A
C1042      C2097   1.407       .  A
C1042      F1043   1.357       .  S
C1047      C1048   1.404       .  A
C1047      C1052   1.403       .  A
C1047      H1054   1.082       .  S
C1048      C1049   1.404       .  A
C1049      C1050   1.391       .  A
C1049      F1056   1.359       .  S
C1050      C1051   1.403       .  A
C1050      H1055   1.083       .  S
C1051      C1052   1.407       .  A
C1052      F1053   1.357       .  S
O1057      C1060   1.269       .  A
O1057     Cd1062   2.487       .  S
C1058      O1067   1.265       .  A
C1058      O1063   1.268       .  A
C1058      C1549   1.475       .  S
O1059      C1065   1.270       .  A
O1059     Cd1062   2.483       .  S
C1060      O1068   1.264       .  A
C1060      C1576   1.469       .  S
C1061      O1066   1.268       .  A
C1061      O1064   1.265       .  A
C1061      C1569   1.486       .  S
Cd1062     O1069   2.450       .  S
Cd1062     O1068   2.408       .  S
Cd1062     O1067   2.429       .  S
Cd1062     O1063   2.461       .  S
Cd1062     O1066   2.475       .  S
Cd1062     O1064   2.471       .  S
C1065      O1069   1.265       .  A
C1065      C1556   1.486       .  S
O1070      C1073   1.269       .  A
O1070     Cd1075   2.487       .  S
C1071      O1080   1.265       .  A
C1071      O1076   1.269       .  A
C1071      C1516   1.477       .  S
O1072      C1078   1.270       .  A
O1072     Cd1075   2.469       .  S
C1073      O1081   1.264       .  A
C1073      C1579   1.474       .  S
C1074      O1079   1.268       .  A
C1074      O1077   1.266       .  A
C1074      C1536   1.483       .  S
Cd1075     O1082   2.440       .  S
Cd1075     O1081   2.413       .  S
Cd1075     O1080   2.424       .  S
Cd1075     O1076   2.467       .  S
Cd1075     O1079   2.465       .  S
Cd1075     O1077   2.457       .  S
C1078      O1082   1.265       .  A
C1078      C1526   1.482       .  S
O1083      C1086   1.266       .  A
O1083     Cd1088   2.466       .  S
C1084      O1093   1.265       .  A
C1084      O1089   1.267       .  A
C1084      C1496   1.480       .  S
O1085      C1091   1.268       .  A
O1085     Cd1088   2.494       .  S
C1086      O1094   1.265       .  A
C1086      C1506   1.475       .  S
C1087      O1092   1.269       .  A
C1087      O1090   1.266       .  A
C1087      C1539   1.483       .  S
Cd1088     O1095   2.439       .  S
Cd1088     O1094   2.451       .  S
Cd1088     O1093   2.445       .  S
Cd1088     O1089   2.472       .  S
Cd1088     O1092   2.477       .  S
Cd1088     O1090   2.442       .  S
C1091      O1095   1.263       .  A
C1091      C1529   1.482       .  S
O1096      C1099   1.266       .  A
O1096     Cd1101   2.475       .  S
C1097      O1106   1.265       .  A
C1097      O1102   1.268       .  A
C1097      C1486   1.480       .  S
O1098      C1104   1.268       .  A
O1098     Cd1101   2.497       .  S
C1099      O1107   1.264       .  A
C1099      C1509   1.477       .  S
C1100      O1105   1.268       .  A
C1100      O1103   1.266       .  A
C1100      C1566   1.484       .  S
Cd1101     O1108   2.447       .  S
Cd1101     O1107   2.443       .  S
Cd1101     O1106   2.437       .  S
Cd1101     O1102   2.472       .  S
Cd1101     O1105   2.483       .  S
Cd1101     O1103   2.448       .  S
C1104      O1108   1.263       .  A
C1104      C1559   1.485       .  S
O1109      C1112   1.266       .  A
O1109     Cd1114   2.480       .  S
C1110      O1119   1.265       .  A
C1110      O1115   1.268       .  A
C1110      C1446   1.479       .  S
O1111      C1117   1.269       .  A
O1111     Cd1114   2.491       .  S
C1112      O1120   1.264       .  A
C1112      C1476   1.477       .  S
C1113      O1118   1.269       .  A
C1113      O1116   1.267       .  A
C1113      C1466   1.488       .  S
Cd1114     O1121   2.454       .  S
Cd1114     O1120   2.454       .  S
Cd1114     O1119   2.449       .  S
Cd1114     O1115   2.458       .  S
Cd1114     O1118   2.483       .  S
Cd1114     O1116   2.467       .  S
C1117      O1121   1.263       .  A
C1117      C1456   1.485       .  S
O1122      C1125   1.267       .  A
O1122     Cd1127   2.465       .  S
C1123      O1132   1.265       .  A
C1123      O1128   1.268       .  A
C1123      C1546   1.476       .  S
O1124      C1130   1.270       .  A
O1124     Cd1127   2.471       .  S
C1125      O1133   1.265       .  A
C1125      C1479   1.480       .  S
C1126      O1131   1.270       .  A
C1126      O1129   1.265       .  A
C1126      C1436   1.481       .  S
Cd1127     O1134   2.430       .  S
Cd1127     O1133   2.452       .  S
Cd1127     O1132   2.435       .  S
Cd1127     O1128   2.444       .  S
Cd1127     O1131   2.480       .  S
Cd1127     O1129   2.426       .  S
C1130      O1134   1.263       .  A
C1130      C1429   1.479       .  S
O1135      C1138   1.269       .  A
O1135     Cd1140   2.505       .  S
C1136      O1145   1.265       .  A
C1136      O1141   1.269       .  A
C1136      C1489   1.479       .  S
O1137      C1143   1.270       .  A
O1137     Cd1140   2.473       .  S
C1138      O1146   1.263       .  A
C1138      C1416   1.471       .  S
C1139      O1144   1.268       .  A
C1139      O1142   1.264       .  A
C1139      C1439   1.480       .  S
Cd1140     O1147   2.415       .  S
Cd1140     O1146   2.406       .  S
Cd1140     O1145   2.442       .  S
Cd1140     O1141   2.453       .  S
Cd1140     O1144   2.469       .  S
Cd1140     O1142   2.436       .  S
C1143      O1147   1.265       .  A
C1143      C1426   1.479       .  S
O1148      C1151   1.269       .  A
O1148     Cd1153   2.511       .  S
C1149      O1158   1.265       .  A
C1149      O1154   1.268       .  A
C1149      C1406   1.480       .  S
O1150      C1156   1.270       .  A
O1150     Cd1153   2.492       .  S
C1151      O1159   1.263       .  A
C1151      C1419   1.477       .  S
C1152      O1157   1.267       .  A
C1152      O1155   1.265       .  A
C1152      C1469   1.487       .  S
Cd1153     O1160   2.442       .  S
Cd1153     O1159   2.404       .  S
Cd1153     O1158   2.430       .  S
Cd1153     O1154   2.482       .  S
Cd1153     O1157   2.478       .  S
Cd1153     O1155   2.473       .  S
C1156      O1160   1.266       .  A
C1156      C1459   1.486       .  S
O1161      C1164   1.267       .  A
O1161     Cd1166   2.459       .  S
C1162      O1171   1.265       .  A
C1162      O1167   1.268       .  A
C1162      C1366   1.483       .  S
O1163      C1169   1.269       .  A
O1163     Cd1166   2.490       .  S
C1164      O1172   1.265       .  A
C1164      C1399   1.476       .  S
C1165      O1170   1.269       .  A
C1165      O1168   1.265       .  A
C1165      C1386   1.486       .  S
Cd1166     O1173   2.444       .  S
Cd1166     O1172   2.449       .  S
Cd1166     O1171   2.442       .  S
Cd1166     O1167   2.486       .  S
Cd1166     O1170   2.488       .  S
Cd1166     O1168   2.451       .  S
C1169      O1173   1.263       .  A
C1169      C1376   1.484       .  S
O1174      C1177   1.266       .  A
O1174     Cd1179   2.473       .  S
C1175      O1184   1.265       .  A
C1175      O1180   1.268       .  A
C1175      C1409   1.478       .  S
O1176      C1182   1.269       .  A
O1176     Cd1179   2.503       .  S
C1177      O1185   1.265       .  A
C1177      C1396   1.476       .  S
C1178      O1183   1.269       .  A
C1178      O1181   1.266       .  A
C1178      C1356   1.482       .  S
Cd1179     O1186   2.429       .  S
Cd1179     O1185   2.449       .  S
Cd1179     O1184   2.444       .  S
Cd1179     O1180   2.446       .  S
Cd1179     O1183   2.457       .  S
Cd1179     O1181   2.456       .  S
C1182      O1186   1.262       .  A
C1182      C1349   1.483       .  S
O1187      C1190   1.268       .  A
O1187     Cd1192   2.481       .  S
C1188      O1197   1.265       .  A
C1188      O1193   1.268       .  A
C1188      C1326   1.484       .  S
O1189      C1195   1.269       .  A
O1189     Cd1192   2.494       .  S
C1190      O1198   1.265       .  A
C1190      C1336   1.480       .  S
C1191      O1196   1.270       .  A
C1191      O1194   1.267       .  A
C1191      C1389   1.485       .  S
Cd1192     O1199   2.444       .  S
Cd1192     O1198   2.451       .  S
Cd1192     O1197   2.476       .  S
Cd1192     O1193   2.461       .  S
Cd1192     O1196   2.475       .  S
Cd1192     O1194   2.454       .  S
C1195      O1199   1.263       .  A
C1195      C1379   1.484       .  S
O1200      C1203   1.266       .  A
O1200     Cd1205   2.466       .  S
C1201      O1210   1.265       .  A
C1201      O1206   1.267       .  A
C1201      C1449   1.479       .  S
O1202      C1208   1.269       .  A
O1202     Cd1205   2.492       .  S
C1203      O1211   1.265       .  A
C1203      C1339   1.479       .  S
C1204      O1209   1.269       .  A
C1204      O1207   1.265       .  A
C1204      C1359   1.483       .  S
Cd1205     O1212   2.439       .  S
Cd1205     O1211   2.464       .  S
Cd1205     O1210   2.434       .  S
Cd1205     O1206   2.466       .  S
Cd1205     O1209   2.482       .  S
Cd1205     O1207   2.433       .  S
C1208      O1212   1.263       .  A
C1208      C1346   1.483       .  S
O1213      C1216   1.267       .  A
O1213     Cd1218   2.486       .  S
C1214      O1223   1.265       .  A
C1214      O1219   1.269       .  A
C1214      C1369   1.484       .  S
O1215      C1221   1.268       .  A
O1215     Cd1218   2.485       .  S
C1216      O1224   1.264       .  A
C1216      C1319   1.482       .  S
C1217      O1222   1.269       .  A
C1217      O1220   1.266       .  A
C1217      C1306   1.486       .  S
Cd1218     O1225   2.454       .  S
Cd1218     O1224   2.462       .  S
Cd1218     O1223   2.451       .  S
Cd1218     O1219   2.475       .  S
Cd1218     O1222   2.482       .  S
Cd1218     O1220   2.458       .  S
C1221      O1225   1.264       .  A
C1221      C1296   1.484       .  S
O1226      C1229   1.265       .  A
O1226     Cd1231   2.468       .  S
C1227      O1236   1.266       .  A
C1227      O1232   1.268       .  A
C1227      C1499   1.480       .  S
O1228      C1234   1.269       .  A
O1228     Cd1231   2.491       .  S
C1229      O1237   1.265       .  A
C1229      C1316   1.478       .  S
C1230      O1235   1.269       .  A
C1230      O1233   1.266       .  A
C1230      C1286   1.483       .  S
Cd1231     O1238   2.442       .  S
Cd1231     O1237   2.465       .  S
Cd1231     O1236   2.448       .  S
Cd1231     O1232   2.457       .  S
Cd1231     O1235   2.480       .  S
Cd1231     O1233   2.441       .  S
C1234      O1238   1.262       .  A
C1234      C1276   1.483       .  S
O1239      C1242   1.269       .  A
O1239     Cd1244   2.495       .  S
C1240      O1249   1.264       .  A
C1240      O1245   1.269       .  A
C1240      C1519   1.478       .  S
O1241      C1247   1.270       .  A
O1241     Cd1244   2.481       .  S
C1242      O1250   1.264       .  A
C1242      C1269   1.475       .  S
C1243      O1248   1.268       .  A
C1243      O1246   1.265       .  A
C1243      C1289   1.481       .  S
Cd1244     O1251   2.434       .  S
Cd1244     O1250   2.407       .  S
Cd1244     O1249   2.419       .  S
Cd1244     O1245   2.472       .  S
Cd1244     O1248   2.464       .  S
Cd1244     O1246   2.447       .  S
C1247      O1251   1.265       .  A
C1247      C1279   1.483       .  S
O1252      C1255   1.268       .  A
O1252     Cd1257   2.499       .  S
C1253      O1262   1.264       .  A
C1253      O1258   1.268       .  A
C1253      C1329   1.482       .  S
O1254      C1260   1.270       .  A
O1254     Cd1257   2.488       .  S
C1255      O1263   1.263       .  A
C1255      C1266   1.470       .  S
C1256      O1261   1.268       .  A
C1256      O1259   1.265       .  A
C1256      C1309   1.487       .  S
Cd1257     O1264   2.449       .  S
Cd1257     O1263   2.409       .  S
Cd1257     O1262   2.429       .  S
Cd1257     O1258   2.487       .  S
Cd1257     O1261   2.494       .  S
Cd1257     O1259   2.461       .  S
C1260      O1264   1.266       .  A
C1260      C1299   1.484       .  S
C1265      C1266   1.405       .  A
C1265      C1270   1.405       .  A
C1265      H1272   1.083       .  S
C1266      C1267   1.403       .  A
C1267      C1268   1.390       .  A
C1267      F1274   1.358       .  S
C1268      C1269   1.402       .  A
C1268      H1273   1.083       .  S
C1269      C1270   1.408       .  A
C1270      F1271   1.357       .  S
C1275      C1804   1.403   1_545  A
C1275      C1280   1.398       .  A
C1275      H1282   1.083       .  S
C1276      C1803   1.403       .  A
C1276      C1277   1.411       .  A
C1277      F1284   1.358       .  S
C1278      C1807   1.404       .  A
C1278      H1283   1.083       .  S
C1279      C1806   1.404   1_545  A
C1280      F1281   1.357       .  S
C1285      C1286   1.407       .  A
C1285      C1290   1.398       .  A
C1285      H1292   1.083       .  S
C1286      C1815   1.407       .  A
C1287      C1814   1.407   1_545  A
C1287      C1288   1.399       .  A
C1287      F1294   1.357       .  S
C1288      C1289   1.407       .  A
C1288      H1293   1.083       .  S
C1289      C1818   1.407   1_545  A
C1290      C1817   1.407       .  A
C1290      F1291   1.358       .  S
C1295      C1296   1.408       .  A
C1295      C1828   1.400       .  A
C1295      H1302   1.084       .  S
C1297      C1826   1.399       .  A
C1297      F1304   1.357       .  S
C1298      C1825   1.399       .  A
C1298      C1299   1.407   1_565  A
C1298      H1303   1.084   1_565  S
C1300      C1823   1.400   1_545  A
C1300      F1301   1.357       .  S
C1305      C1306   1.407       .  A
C1305      C1310   1.401       .  A
C1305      H1312   1.084       .  S
C1307      C1308   1.400       .  A
C1307      F1314   1.357       .  S
C1308      C1309   1.407       .  A
C1308      H1313   1.084       .  S
C1310      F1311   1.357       .  S
C1315      C1316   1.404       .  A
C1315      C1320   1.400       .  A
C1315      H1322   1.082       .  S
C1316      C1317   1.407       .  A
C1317      C1318   1.399       .  A
C1317      F1324   1.358       .  S
C1318      C1319   1.406       .  A
C1318      H1323   1.082       .  S
C1319      C1320   1.408       .  A
C1320      F1321   1.357       .  S
C1325      C1326   1.403       .  A
C1325      C1330   1.395       .  A
C1325      H1332   1.083       .  S
C1326      C1327   1.411       .  A
C1327      C1328   1.402       .  A
C1327      F1334   1.357       .  S
C1328      C1329   1.406       .  A
C1328      H1333   1.083       .  S
C1329      C1330   1.408       .  A
C1330      F1331   1.357       .  S
C1335      C1336   1.405       .  A
C1335      C1340   1.400       .  A
C1335      H1342   1.083       .  S
C1336      C1337   1.408       .  A
C1337      C1338   1.398       .  A
C1337      F1344   1.357       .  S
C1338      C1339   1.404       .  A
C1338      H1343   1.084       .  S
C1339      C1340   1.408       .  A
C1340      F1341   1.357       .  S
C1345      C1346   1.408       .  A
C1345      C1350   1.400       .  A
C1345      H1352   1.083       .  S
C1346      C1875   1.405   1_545  A
C1347      C1874   1.405       .  A
C1347      C1348   1.397       .  A
C1347      F1354   1.357       .  S
C1348      C1349   1.408       .  A
C1348      H1353   1.083       .  S
C1349      C1878   1.406       .  A
C1350      C1877   1.406   1_545  A
C1350      F1351   1.357       .  S
C1355      C1884   1.403   1_545  A
C1355      C1360   1.396       .  A
C1355      H1362   1.083       .  S
C1356      C1883   1.403       .  A
C1356      C1357   1.410       .  A
C1357      F1364   1.357       .  S
C1358      C1887   1.405       .  A
C1358      H1363   1.083       .  S
C1359      C1886   1.405   1_545  A
C1360      F1361   1.357       .  S
C1365      C1366   1.405       .  A
C1365      C1370   1.401       .  A
C1365      H1372   1.083       .  S
C1366      C1367   1.409       .  A
C1367      C1368   1.398       .  A
C1367      F1374   1.357       .  S
C1368      C1369   1.404       .  A
C1368      H1373   1.083       .  S
C1369      C1370   1.411       .  A
C1370      F1371   1.358       .  S
C1375      C1376   1.408       .  A
C1375      C1908   1.399       .  A
C1375      H1382   1.085       .  S
C1376      C1377   1.406       .  A
C1377      C1378   1.399       .  A
C1377      F1384   1.357       .  S
C1378      C1907   1.408       .  A
C1378      H1911   1.085       .  S
C1379      C1906   1.408       .  A
C1379      C1380   1.406       .  A
C1380      C1903   1.399   1_545  A
C1380      F1381   1.357       .  S
H1383      C1906   1.085       .  S
C1385      C1386   1.405       .  A
C1385      C1390   1.401       .  A
C1385      H1392   1.083       .  S
C1386      C1387   1.410       .  A
C1387      C1388   1.399       .  A
C1387      F1394   1.357       .  S
C1388      C1389   1.404       .  A
C1388      H1393   1.083       .  S
C1389      C1390   1.410       .  A
C1390      F1391   1.357       .  S
C1395      C1396   1.404       .  A
C1395      C1400   1.397       .  A
C1395      H1402   1.083       .  S
C1396      C1397   1.407       .  A
C1397      C1398   1.399       .  A
C1397      F1404   1.358       .  S
C1398      C1399   1.405       .  A
C1398      H1403   1.083       .  S
C1399      C1400   1.406       .  A
C1400      F1401   1.357       .  S
C1405      C1406   1.406       .  A
C1405      C1410   1.395       .  A
C1405      H1412   1.083       .  S
C1406      C1407   1.407       .  A
C1407      C1408   1.399       .  A
C1407      F1414   1.357       .  S
C1408      C1409   1.407       .  A
C1408      H1413   1.084       .  S
C1409      C1410   1.406       .  A
C1410      F1411   1.357       .  S
C1415      C1416   1.400       .  A
C1415      C1420   1.389   1_556  A
C1415      H1422   1.083       .  S
C1416      C1417   1.406       .  A
C1417      C1418   1.407   1_556  A
C1417      F1424   1.357       .  S
C1418      C1419   1.408       .  A
C1418      H1423   1.081       .  S
C1419      C1420   1.406       .  A
C1420      F1421   1.358       .  S
C1425      C1426   1.406       .  A
C1425      C1430   1.395       .  A
C1425      H1432   1.084       .  S
C1426      C1427   1.406       .  A
C1427      C1428   1.398       .  A
C1427      F1434   1.358       .  S
C1428      C1429   1.408       .  A
C1428      H1433   1.085       .  S
C1429      C1430   1.405       .  A
C1430      F1431   1.357       .  S
C1435      C1436   1.404       .  A
C1435      C1440   1.398   1_545  A
C1435      H1442   1.083       .  S
C1436      C1965   1.410       .  A
C1437      C1964   1.410       .  A
C1437      C1438   1.397       .  A
C1437      F1444   1.357       .  S
C1438      C1439   1.403       .  A
C1438      H1443   1.083       .  S
C1439      C1968   1.410       .  A
C1440      C1967   1.410       .  A
C1440      F1441   1.357       .  S
C1445      C1446   1.406       .  A
C1445      C1450   1.399       .  A
C1445      H1452   1.083       .  S
C1446      C1447   1.406       .  A
C1447      C1448   1.395       .  A
C1447      F1454   1.357       .  S
C1448      C1449   1.405       .  A
C1448      H1453   1.083       .  S
C1449      C1450   1.407       .  A
C1450      F1451   1.358       .  S
C1455      C1456   1.409       .  A
C1455      C1460   1.401       .  A
C1455      H1462   1.083       .  S
C1456      C1457   1.406       .  A
C1457      C1458   1.398       .  A
C1457      F1464   1.357       .  S
C1458      C1459   1.407       .  A
C1458      H1463   1.082       .  S
C1459      C1460   1.408       .  A
C1460      F1461   1.358       .  S
C1465      C1466   1.406       .  A
C1465      H1472   1.083       .  S
C1467      C1468   1.400       .  A
C1467      F1474   1.357       .  S
C1468      C1469   1.405       .  A
C1468      H1473   1.083       .  S
C1469      C1470   1.410       .  A
C1470      F1471   1.357       .  S
C1475      C1476   1.404       .  A
C1475      C1480   1.398   1_554  A
C1475      H1482   1.083       .  S
C1476      C1477   1.406       .  A
C1477      C1478   1.399   1_554  A
C1477      F1484   1.358       .  S
C1478      C1479   1.406       .  A
C1478      H1483   1.083       .  S
C1479      C1480   1.408       .  A
C1480      F1481   1.357       .  S
C1485      C1486   1.405       .  A
C1485      C1490   1.399       .  A
C1485      H1492   1.083       .  S
C1486      C1487   1.408       .  A
C1487      C1488   1.395       .  A
C1487      F1494   1.357       .  S
C1488      C1489   1.403       .  A
C1488      H1493   1.083       .  S
C1489      C1490   1.410       .  A
C1490      F1491   1.358       .  S
C1495      C1496   1.405       .  A
C1495      C1500   1.397       .  A
C1495      H1502   1.083       .  S
C1496      C1497   1.407       .  A
C1497      C1498   1.398       .  A
C1497      F1504   1.357       .  S
C1498      C1499   1.406       .  A
C1498      H1503   1.083       .  S
C1499      C1500   1.407       .  A
C1500      F1501   1.357       .  S
C1505      C1506   1.404       .  A
C1505      C1510   1.398       .  A
C1505      H1512   1.082       .  S
C1506      C1507   1.406       .  A
C1507      C1508   1.397       .  A
C1507      F1514   1.358       .  S
C1508      C1509   1.405       .  A
C1508      H1513   1.082       .  S
C1509      C1510   1.407       .  A
C1510      F1511   1.357       .  S
C1515      C1516   1.407       .  A
C1515      C1520   1.397       .  A
C1515      H1522   1.083       .  S
C1516      C1517   1.405       .  A
C1517      C1518   1.396       .  A
C1517      F1524   1.357       .  S
C1518      C1519   1.407       .  A
C1518      H1523   1.083       .  S
C1519      C1520   1.406       .  A
C1520      F1521   1.357       .  S
C1525      C1530   1.399       .  A
C1525      H1532   1.083       .  S
C1526      C1527   1.406       .  A
C1527      F1534   1.357       .  S
C1528      C1529   1.407       .  A
C1528      H1533   1.083       .  S
C1529      C1530   1.407       .  A
C1530      F1531   1.357       .  S
C1535      C1536   1.407       .  A
C1535      C1540   1.400       .  A
C1535      H1542   1.083       .  S
C1536      C1537   1.407       .  A
C1537      C1538   1.397       .  A
C1537      F1544   1.357       .  S
C1538      C1539   1.406       .  A
C1538      H1543   1.083       .  S
C1539      C1540   1.408       .  A
C1540      F1541   1.357       .  S
C1545      C1546   1.406       .  A
C1545      C1550   1.397       .  A
C1545      H1552   1.084       .  S
C1546      C1547   1.406       .  A
C1547      C1548   1.395       .  A
C1547      F1554   1.357       .  S
C1548      C1549   1.405       .  A
C1548      H1553   1.084       .  S
C1549      C1550   1.406       .  A
C1550      F1551   1.357       .  S
C1555      C1556   1.408       .  A
C1555      C1560   1.401       .  A
C1555      H1562   1.085       .  S
C1557      C1558   1.398       .  A
C1557      F1564   1.357       .  S
C1558      C1559   1.407       .  A
C1558      H1563   1.085       .  S
C1560      F1561   1.357       .  S
C1565      C1566   1.405       .  A
C1565      C2098   1.398       .  A
C1565      H2100   1.084       .  S
C1567      C1568   1.402       .  A
C1567      F1574   1.358       .  S
C1568      C2097   1.408       .  A
C1568      H1573   1.084       .  S
C1569      C2096   1.408       .  A
C1570      C2093   1.398   1_545  A
C1570      F1571   1.357       .  S
H1572      C2093   1.084       .  S
C1575      C1576   1.404       .  A
C1575      C1580   1.403       .  A
C1575      H1582   1.082       .  S
C1576      C1577   1.404       .  A
C1577      C1578   1.391       .  A
C1577      F1584   1.359       .  S
C1578      C1579   1.403       .  A
C1578      H1583   1.083       .  S
C1579      C1580   1.407       .  A
C1580      F1581   1.357       .  S
O1585      C1588   1.269       .  A
O1585     Cd1590   2.487       .  S
C1586      O1595   1.265       .  A
C1586      O1591   1.268       .  A
C1586      C2077   1.475       .  S
O1587      C1593   1.270       .  A
O1587     Cd1590   2.483       .  S
C1588      O1596   1.264       .  A
C1588      C2104   1.469       .  S
C1589      O1594   1.268       .  A
C1589      O1592   1.265       .  A
C1589      C2097   1.486       .  S
Cd1590     O1597   2.450       .  S
Cd1590     O1596   2.408       .  S
Cd1590     O1595   2.429       .  S
Cd1590     O1591   2.461       .  S
Cd1590     O1594   2.475       .  S
Cd1590     O1592   2.471       .  S
C1593      O1597   1.265       .  A
C1593      C2084   1.486       .  S
O1598      C1601   1.269       .  A
O1598     Cd1603   2.487       .  S
C1599      O1608   1.265       .  A
C1599      O1604   1.269       .  A
C1599      C2044   1.477       .  S
O1600      C1606   1.270       .  A
O1600     Cd1603   2.469       .  S
C1601      O1609   1.264       .  A
C1601      C2107   1.474       .  S
C1602      O1607   1.268       .  A
C1602      O1605   1.266       .  A
C1602      C2064   1.483       .  S
Cd1603     O1610   2.440       .  S
Cd1603     O1609   2.413       .  S
Cd1603     O1608   2.424       .  S
Cd1603     O1604   2.467       .  S
Cd1603     O1607   2.465       .  S
Cd1603     O1605   2.457       .  S
C1606      O1610   1.265       .  A
C1606      C2054   1.482       .  S
O1611      C1614   1.266       .  A
O1611     Cd1616   2.466       .  S
C1612      O1621   1.265       .  A
C1612      O1617   1.267       .  A
C1612      C2024   1.480       .  S
O1613      C1619   1.268       .  A
O1613     Cd1616   2.494       .  S
C1614      O1622   1.265       .  A
C1614      C2034   1.475       .  S
C1615      O1620   1.269       .  A
C1615      O1618   1.266       .  A
C1615      C2067   1.483       .  S
Cd1616     O1623   2.439       .  S
Cd1616     O1622   2.451       .  S
Cd1616     O1621   2.445       .  S
Cd1616     O1617   2.472       .  S
Cd1616     O1620   2.477       .  S
Cd1616     O1618   2.442       .  S
C1619      O1623   1.263       .  A
C1619      C2057   1.482       .  S
O1624      C1627   1.266       .  A
O1624     Cd1629   2.475       .  S
C1625      O1634   1.265       .  A
C1625      O1630   1.268       .  A
C1625      C2014   1.480       .  S
O1626      C1632   1.268       .  A
O1626     Cd1629   2.497       .  S
C1627      O1635   1.264       .  A
C1627      C2037   1.477       .  S
C1628      O1633   1.268       .  A
C1628      O1631   1.266       .  A
C1628      C2094   1.484       .  S
Cd1629     O1636   2.447       .  S
Cd1629     O1635   2.443       .  S
Cd1629     O1634   2.437       .  S
Cd1629     O1630   2.472       .  S
Cd1629     O1633   2.483       .  S
Cd1629     O1631   2.448       .  S
C1632      O1636   1.263       .  A
C1632      C2087   1.485       .  S
O1637      C1640   1.266       .  A
O1637     Cd1642   2.480       .  S
C1638      O1647   1.265       .  A
C1638      O1643   1.268       .  A
C1638      C1974   1.479       .  S
O1639      C1645   1.269       .  A
O1639     Cd1642   2.491       .  S
C1640      O1648   1.264       .  A
C1640      C2004   1.477       .  S
C1641      O1646   1.269       .  A
C1641      O1644   1.267       .  A
C1641      C1994   1.488       .  S
Cd1642     O1649   2.454       .  S
Cd1642     O1648   2.454       .  S
Cd1642     O1647   2.449       .  S
Cd1642     O1643   2.458       .  S
Cd1642     O1646   2.483       .  S
Cd1642     O1644   2.467       .  S
C1645      O1649   1.263       .  A
C1645      C1984   1.485       .  S
O1650      C1653   1.267       .  A
O1650     Cd1655   2.465       .  S
C1651      O1660   1.265       .  A
C1651      O1656   1.268       .  A
C1651      C2074   1.476       .  S
O1652      C1658   1.270       .  A
O1652     Cd1655   2.471       .  S
C1653      O1661   1.265       .  A
C1653      C2007   1.480       .  S
C1654      O1659   1.270       .  A
C1654      O1657   1.265       .  A
C1654      C1964   1.481       .  S
Cd1655     O1662   2.430       .  S
Cd1655     O1661   2.452       .  S
Cd1655     O1660   2.435       .  S
Cd1655     O1656   2.444       .  S
Cd1655     O1659   2.480       .  S
Cd1655     O1657   2.426       .  S
C1658      O1662   1.263       .  A
C1658      C1957   1.479       .  S
O1663      C1666   1.269       .  A
O1663     Cd1668   2.505       .  S
C1664      O1673   1.265       .  A
C1664      O1669   1.269       .  A
C1664      C2017   1.479       .  S
O1665      C1671   1.270       .  A
O1665     Cd1668   2.473       .  S
C1666      O1674   1.263       .  A
C1666      C1944   1.471       .  S
C1667      O1672   1.268       .  A
C1667      O1670   1.264       .  A
C1667      C1967   1.480       .  S
Cd1668     O1675   2.415       .  S
Cd1668     O1674   2.406       .  S
Cd1668     O1673   2.442       .  S
Cd1668     O1669   2.453       .  S
Cd1668     O1672   2.469       .  S
Cd1668     O1670   2.436       .  S
C1671      O1675   1.265       .  A
C1671      C1954   1.479       .  S
O1676      C1679   1.269       .  A
O1676     Cd1681   2.511       .  S
C1677      O1686   1.265       .  A
C1677      O1682   1.268       .  A
C1677      C1934   1.480       .  S
O1678      C1684   1.270       .  A
O1678     Cd1681   2.492       .  S
C1679      O1687   1.263       .  A
C1679      C1947   1.477       .  S
C1680      O1685   1.267       .  A
C1680      O1683   1.265       .  A
C1680      C1997   1.487       .  S
Cd1681     O1688   2.442       .  S
Cd1681     O1687   2.404       .  S
Cd1681     O1686   2.430       .  S
Cd1681     O1682   2.482       .  S
Cd1681     O1685   2.478       .  S
Cd1681     O1683   2.473       .  S
C1684      O1688   1.266       .  A
C1684      C1987   1.486       .  S
O1689      C1692   1.267       .  A
O1689     Cd1694   2.459       .  S
C1690      O1699   1.265       .  A
C1690      O1695   1.268       .  A
C1690      C1894   1.483       .  S
O1691      C1697   1.269       .  A
O1691     Cd1694   2.490       .  S
C1692      O1700   1.265       .  A
C1692      C1927   1.476       .  S
C1693      O1698   1.269       .  A
C1693      O1696   1.265       .  A
C1693      C1914   1.486       .  S
Cd1694     O1701   2.444       .  S
Cd1694     O1700   2.449       .  S
Cd1694     O1699   2.442       .  S
Cd1694     O1695   2.486       .  S
Cd1694     O1698   2.488       .  S
Cd1694     O1696   2.451       .  S
C1697      O1701   1.263       .  A
C1697      C1904   1.484       .  S
O1702      C1705   1.266       .  A
O1702     Cd1707   2.473       .  S
C1703      O1712   1.265       .  A
C1703      O1708   1.268       .  A
C1703      C1937   1.478       .  S
O1704      C1710   1.269       .  A
O1704     Cd1707   2.503       .  S
C1705      O1713   1.265       .  A
C1705      C1924   1.476       .  S
C1706      O1711   1.269       .  A
C1706      O1709   1.266       .  A
C1706      C1884   1.482       .  S
Cd1707     O1714   2.429       .  S
Cd1707     O1713   2.449       .  S
Cd1707     O1712   2.444       .  S
Cd1707     O1708   2.446       .  S
Cd1707     O1711   2.457       .  S
Cd1707     O1709   2.456       .  S
C1710      O1714   1.262       .  A
C1710      C1877   1.483       .  S
O1715      C1718   1.268       .  A
O1715     Cd1720   2.481       .  S
C1716      O1725   1.265       .  A
C1716      O1721   1.268       .  A
C1716      C1854   1.484       .  S
O1717      C1723   1.269       .  A
O1717     Cd1720   2.494       .  S
C1718      O1726   1.265       .  A
C1718      C1864   1.480       .  S
C1719      O1724   1.270       .  A
C1719      O1722   1.267       .  A
C1719      C1917   1.485       .  S
Cd1720     O1727   2.444       .  S
Cd1720     O1726   2.451       .  S
Cd1720     O1725   2.476       .  S
Cd1720     O1721   2.461       .  S
Cd1720     O1724   2.475       .  S
Cd1720     O1722   2.454       .  S
C1723      O1727   1.263       .  A
C1723      C1907   1.484       .  S
O1728      C1731   1.266       .  A
O1728     Cd1733   2.466       .  S
C1729      O1738   1.265       .  A
C1729      O1734   1.267       .  A
C1729      C1977   1.479       .  S
O1730      C1736   1.269       .  A
O1730     Cd1733   2.492       .  S
C1731      O1739   1.265       .  A
C1731      C1867   1.479       .  S
C1732      O1737   1.269       .  A
C1732      O1735   1.265       .  A
C1732      C1887   1.483       .  S
Cd1733     O1740   2.439       .  S
Cd1733     O1739   2.464       .  S
Cd1733     O1738   2.434       .  S
Cd1733     O1734   2.466       .  S
Cd1733     O1737   2.482       .  S
Cd1733     O1735   2.433       .  S
C1736      O1740   1.263       .  A
C1736      C1874   1.483       .  S
O1741      C1744   1.267       .  A
O1741     Cd1746   2.486       .  S
C1742      O1751   1.265       .  A
C1742      O1747   1.269       .  A
C1742      C1897   1.484       .  S
O1743      C1749   1.268       .  A
O1743     Cd1746   2.485       .  S
C1744      O1752   1.264       .  A
C1744      C1847   1.482       .  S
C1745      O1750   1.269       .  A
C1745      O1748   1.266       .  A
C1745      C1834   1.486       .  S
Cd1746     O1753   2.454       .  S
Cd1746     O1752   2.462       .  S
Cd1746     O1751   2.451       .  S
Cd1746     O1747   2.475       .  S
Cd1746     O1750   2.482       .  S
Cd1746     O1748   2.458       .  S
C1749      O1753   1.264       .  A
C1749      C1824   1.484       .  S
O1754      C1757   1.265       .  A
O1754     Cd1759   2.468       .  S
C1755      O1764   1.266       .  A
C1755      O1760   1.268       .  A
C1755      C2027   1.480       .  S
O1756      C1762   1.269       .  A
O1756     Cd1759   2.491       .  S
C1757      O1765   1.265       .  A
C1757      C1844   1.478       .  S
C1758      O1763   1.269       .  A
C1758      O1761   1.266       .  A
C1758      C1814   1.483       .  S
Cd1759     O1766   2.442       .  S
Cd1759     O1765   2.465       .  S
Cd1759     O1764   2.448       .  S
Cd1759     O1760   2.457       .  S
Cd1759     O1763   2.480       .  S
Cd1759     O1761   2.441       .  S
C1762      O1766   1.262       .  A
C1762      C1804   1.483       .  S
O1767      C1770   1.269       .  A
O1767     Cd1772   2.495       .  S
C1768      O1777   1.264       .  A
C1768      O1773   1.269       .  A
C1768      C2047   1.478       .  S
O1769      C1775   1.270       .  A
O1769     Cd1772   2.481       .  S
C1770      O1778   1.264       .  A
C1770      C1797   1.475       .  S
C1771      O1776   1.268       .  A
C1771      O1774   1.265       .  A
C1771      C1817   1.481       .  S
Cd1772     O1779   2.434       .  S
Cd1772     O1778   2.407       .  S
Cd1772     O1777   2.419       .  S
Cd1772     O1773   2.472       .  S
Cd1772     O1776   2.464       .  S
Cd1772     O1774   2.447       .  S
C1775      O1779   1.265       .  A
C1775      C1807   1.483       .  S
O1780      C1783   1.268       .  A
O1780     Cd1785   2.499       .  S
C1781      O1790   1.264       .  A
C1781      O1786   1.268       .  A
C1781      C1857   1.482       .  S
O1782      C1788   1.270       .  A
O1782     Cd1785   2.488       .  S
C1783      O1791   1.263       .  A
C1783      C1794   1.470       .  S
C1784      O1789   1.268       .  A
C1784      O1787   1.265       .  A
C1784      C1837   1.487       .  S
Cd1785     O1792   2.449       .  S
Cd1785     O1791   2.409       .  S
Cd1785     O1790   2.429       .  S
Cd1785     O1786   2.487       .  S
Cd1785     O1789   2.494       .  S
Cd1785     O1787   2.461       .  S
C1788      O1792   1.266       .  A
C1788      C1827   1.484       .  S
C1793      C1794   1.405       .  A
C1793      C1798   1.405       .  A
C1793      H1800   1.083       .  S
C1794      C1795   1.403       .  A
C1795      C1796   1.390       .  A
C1795      F1802   1.358       .  S
C1796      C1797   1.402       .  A
C1796      H1801   1.083       .  S
C1797      C1798   1.408       .  A
C1798      F1799   1.357       .  S
C1803      C1808   1.398       .  A
C1803      H1810   1.083       .  S
C1804      C1805   1.411       .  A
C1805      F1812   1.358       .  S
C1806      H1811   1.083       .  S
C1808      F1809   1.357       .  S
C1813      C1814   1.407       .  A
C1813      C1818   1.398       .  A
C1813      H1820   1.083       .  S
C1815      C1816   1.399       .  A
C1815      F1822   1.357       .  S
C1816      C1817   1.407       .  A
C1816      H1821   1.083       .  S
C1818      F1819   1.358       .  S
C1823      C1824   1.408       .  A
C1823      H1830   1.084       .  S
C1825      F1832   1.357       .  S
C1826      C1827   1.407       .  A
C1826      H1831   1.084       .  S
C1828      F1829   1.357       .  S
C1833      C1834   1.407       .  A
C1833      C1838   1.401       .  A
C1833      H1840   1.084       .  S
C1835      C1836   1.400       .  A
C1835      F1842   1.357       .  S
C1836      C1837   1.407       .  A
C1836      H1841   1.084       .  S
C1838      F1839   1.357       .  S
C1843      C1844   1.404       .  A
C1843      C1848   1.400       .  A
C1843      H1850   1.082       .  S
C1844      C1845   1.407       .  A
C1845      C1846   1.399       .  A
C1845      F1852   1.358       .  S
C1846      C1847   1.406       .  A
C1846      H1851   1.082       .  S
C1847      C1848   1.408       .  A
C1848      F1849   1.357       .  S
C1853      C1854   1.403       .  A
C1853      C1858   1.395       .  A
C1853      H1860   1.083       .  S
C1854      C1855   1.411       .  A
C1855      C1856   1.402       .  A
C1855      F1862   1.357       .  S
C1856      C1857   1.406       .  A
C1856      H1861   1.083       .  S
C1857      C1858   1.408       .  A
C1858      F1859   1.357       .  S
C1863      C1864   1.405       .  A
C1863      C1868   1.400       .  A
C1863      H1870   1.083       .  S
C1864      C1865   1.408       .  A
C1865      C1866   1.398       .  A
C1865      F1872   1.357       .  S
C1866      C1867   1.404       .  A
C1866      H1871   1.084       .  S
C1867      C1868   1.408       .  A
C1868      F1869   1.357       .  S
C1873      C1874   1.408       .  A
C1873      C1878   1.400       .  A
C1873      H1880   1.083       .  S
C1875      C1876   1.397       .  A
C1875      F1882   1.357       .  S
C1876      C1877   1.408       .  A
C1876      H1881   1.083       .  S
C1878      F1879   1.357       .  S
C1883      C1888   1.396       .  A
C1883      H1890   1.083       .  S
C1884      C1885   1.410       .  A
C1885      F1892   1.357       .  S
C1886      H1891   1.083       .  S
C1888      F1889   1.357       .  S
C1893      C1894   1.405       .  A
C1893      C1898   1.401       .  A
C1893      H1900   1.083       .  S
C1894      C1895   1.409       .  A
C1895      C1896   1.398       .  A
C1895      F1902   1.357       .  S
C1896      C1897   1.404       .  A
C1896      H1901   1.083       .  S
C1897      C1898   1.411       .  A
C1898      F1899   1.358       .  S
C1903      C1904   1.408       .  A
C1903      H1910   1.085       .  S
C1904      C1905   1.406       .  A
C1905      C1906   1.399   1_565  A
C1905      F1912   1.357       .  S
C1907      C1908   1.406       .  A
C1908      F1909   1.357       .  S
C1913      C1914   1.405       .  A
C1913      C1918   1.401       .  A
C1913      H1920   1.083       .  S
C1914      C1915   1.410       .  A
C1915      C1916   1.399       .  A
C1915      F1922   1.357       .  S
C1916      C1917   1.404       .  A
C1916      H1921   1.083       .  S
C1917      C1918   1.410       .  A
C1918      F1919   1.357       .  S
C1923      C1924   1.404       .  A
C1923      C1928   1.397       .  A
C1923      H1930   1.083       .  S
C1924      C1925   1.407       .  A
C1925      C1926   1.399       .  A
C1925      F1932   1.358       .  S
C1926      C1927   1.405       .  A
C1926      H1931   1.083       .  S
C1927      C1928   1.406       .  A
C1928      F1929   1.357       .  S
C1933      C1934   1.406       .  A
C1933      C1938   1.395       .  A
C1933      H1940   1.083       .  S
C1934      C1935   1.407       .  A
C1935      C1936   1.399       .  A
C1935      F1942   1.357       .  S
C1936      C1937   1.407       .  A
C1936      H1941   1.083       .  S
C1937      C1938   1.406       .  A
C1938      F1939   1.357       .  S
C1943      C1944   1.400       .  A
C1943      C1948   1.389   1_556  A
C1943      H1950   1.083       .  S
C1944      C1945   1.406       .  A
C1945      C1946   1.407   1_556  A
C1945      F1952   1.357       .  S
C1946      C1947   1.408       .  A
C1946      H1951   1.081       .  S
C1947      C1948   1.406       .  A
C1948      F1949   1.358       .  S
C1953      C1954   1.406       .  A
C1953      C1958   1.395       .  A
C1953      H1960   1.084       .  S
C1954      C1955   1.406       .  A
C1955      C1956   1.398       .  A
C1955      F1962   1.358       .  S
C1956      C1957   1.408       .  A
C1956      H1961   1.085       .  S
C1957      C1958   1.405       .  A
C1958      F1959   1.357       .  S
C1963      C1964   1.404       .  A
C1963      C1968   1.398       .  A
C1963      H1970   1.083       .  S
C1965      C1966   1.397   1_545  A
C1965      F1972   1.357       .  S
C1966      C1967   1.403       .  A
C1966      H1971   1.083       .  S
C1968      F1969   1.357       .  S
C1973      C1974   1.406       .  A
C1973      C1978   1.399       .  A
C1973      H1980   1.083       .  S
C1974      C1975   1.406       .  A
C1975      C1976   1.395       .  A
C1975      F1982   1.357       .  S
C1976      C1977   1.405       .  A
C1976      H1981   1.083       .  S
C1977      C1978   1.408       .  A
C1978      F1979   1.358       .  S
C1983      C1984   1.409       .  A
C1983      C1988   1.401       .  A
C1983      H1990   1.083       .  S
C1984      C1985   1.406       .  A
C1985      C1986   1.398       .  A
C1985      F1992   1.357       .  S
C1986      C1987   1.407       .  A
C1986      H1991   1.082       .  S
C1987      C1988   1.408       .  A
C1988      F1989   1.358       .  S
C1993      C1994   1.406       .  A
C1993      H2000   1.083       .  S
C1995      C1996   1.400       .  A
C1995      F2002   1.357       .  S
C1996      C1997   1.405       .  A
C1996      H2001   1.083       .  S
C1997      C1998   1.410       .  A
C1998      F1999   1.357       .  S
C2003      C2004   1.404       .  A
C2003      C2008   1.398   1_554  A
C2003      H2010   1.083       .  S
C2004      C2005   1.406       .  A
C2005      C2006   1.399   1_554  A
C2005      F2012   1.358       .  S
C2006      C2007   1.406       .  A
C2006      H2011   1.083       .  S
C2007      C2008   1.408       .  A
C2008      F2009   1.357       .  S
C2013      C2014   1.405       .  A
C2013      C2018   1.399       .  A
C2013      H2020   1.083       .  S
C2014      C2015   1.408       .  A
C2015      C2016   1.395       .  A
C2015      F2022   1.357       .  S
C2016      C2017   1.403       .  A
C2016      H2021   1.083       .  S
C2017      C2018   1.410       .  A
C2018      F2019   1.358       .  S
C2023      C2024   1.405       .  A
C2023      C2028   1.397       .  A
C2023      H2030   1.083       .  S
C2024      C2025   1.407       .  A
C2025      C2026   1.398       .  A
C2025      F2032   1.357       .  S
C2026      C2027   1.406       .  A
C2026      H2031   1.083       .  S
C2027      C2028   1.407       .  A
C2028      F2029   1.357       .  S
C2033      C2034   1.404       .  A
C2033      C2038   1.398       .  A
C2033      H2040   1.082       .  S
C2034      C2035   1.406       .  A
C2035      C2036   1.397       .  A
C2035      F2042   1.358       .  S
C2036      C2037   1.405       .  A
C2036      H2041   1.082       .  S
C2037      C2038   1.407       .  A
C2038      F2039   1.357       .  S
C2043      C2044   1.407       .  A
C2043      C2048   1.397       .  A
C2043      H2050   1.083       .  S
C2044      C2045   1.405       .  A
C2045      C2046   1.396       .  A
C2045      F2052   1.357       .  S
C2046      C2047   1.407       .  A
C2046      H2051   1.083       .  S
C2047      C2048   1.406       .  A
C2048      F2049   1.357       .  S
C2053      C2058   1.399       .  A
C2053      H2060   1.083       .  S
C2054      C2055   1.406       .  A
C2055      F2062   1.357       .  S
C2056      C2057   1.407       .  A
C2056      H2061   1.083       .  S
C2057      C2058   1.407       .  A
C2058      F2059   1.357       .  S
C2063      C2064   1.407       .  A
C2063      C2068   1.400       .  A
C2063      H2070   1.083       .  S
C2064      C2065   1.407       .  A
C2065      C2066   1.397       .  A
C2065      F2072   1.357       .  S
C2066      C2067   1.406       .  A
C2066      H2071   1.083       .  S
C2067      C2068   1.408       .  A
C2068      F2069   1.357       .  S
C2073      C2074   1.406       .  A
C2073      C2078   1.397       .  A
C2073      H2080   1.084       .  S
C2074      C2075   1.406       .  A
C2075      C2076   1.395       .  A
C2075      F2082   1.357       .  S
C2076      C2077   1.405       .  A
C2076      H2081   1.084       .  S
C2077      C2078   1.406       .  A
C2078      F2079   1.357       .  S
C2083      C2084   1.408       .  A
C2083      C2088   1.401       .  A
C2083      H2090   1.085       .  S
C2085      C2086   1.398       .  A
C2085      F2092   1.357       .  S
C2086      C2087   1.407       .  A
C2086      H2091   1.085       .  S
C2088      F2089   1.357       .  S
C2093      C2094   1.405       .  A
C2095      C2096   1.402   1_565  A
C2095      F2102   1.358       .  S
C2096      H2101   1.084       .  S
C2098      F2099   1.357       .  S
C2103      C2104   1.404       .  A
C2103      C2108   1.403       .  A
C2103      H2110   1.082       .  S
C2104      C2105   1.404       .  A
C2105      C2106   1.391       .  A
C2105      F2112   1.359       .  S
C2106      C2107   1.403       .  A
C2106      H2111   1.083       .  S
C2107      C2108   1.407       .  A
C2108      F2109   1.357       .  S
