geometry optimzed in LAMMPS
_audit_creation_date              2020-12-01 
_audit_creation_method            'lammps2cif' 
_symmetry_space_group_name_H-M    'P1' 
_symmetry_Int_Tables_number       1 
_symmetry_cell_setting            triclinic 
loop_ 
_symmetry_equiv_pos_as_xyz 
  x,y,z 
_cell_length_a                    23.71325074 
_cell_length_b                    23.79302214161301 
_cell_length_c                    23.976812431941 
_cell_angle_alpha                 95.79750200283397 
_cell_angle_beta                  88.32937618184708 
_cell_angle_gamma                 86.44585994932756 
loop_ 
_atom_site_label 
_atom_site_type_symbol 
_atom_site_fract_x 
_atom_site_fract_y 
_atom_site_fract_z 
_atom_site_charge 
C1          C  0.23439575  0.17809563  0.22870250     0.30800
C2          C  0.28377439  0.26178951  0.29135932     0.30800
C3          C  0.28761939  0.19971756  0.19993019    -0.05400
C4          C  0.19701715  0.23288084  0.24264024    -0.06200
C5          C  0.25684547  0.16347404  0.28563948    -0.06100
C6          C  0.31370654  0.24210230  0.23263139    -0.05400
C7          C  0.22201367  0.27414850  0.27538239    -0.06200
C8          C  0.28248935  0.20456111  0.31868047    -0.06100
C9          C  0.35913640  0.25694373  0.20000720    -0.31500
N10         N  0.35958440  0.22780122  0.14793836     0.15000
C11         C  0.31559217  0.19346330  0.14731837    -0.31500
H12         H  0.30416091  0.16714745  0.11049437     0.17000
C13         C  0.18707211  0.32308362  0.27765096    -0.30500
N14         N  0.14272969  0.31395311  0.24486868     0.13800
C15         C  0.14848393  0.25880124  0.22226628    -0.30400
C16         C  0.29877287  0.17771689  0.36644116    -0.30700
N17         N  0.28017880  0.12384476  0.36347380     0.14300
H18         H  0.32332981  0.19544035  0.40023794     0.16900
C19         C  0.25582338  0.11552872  0.31349036    -0.30700
H20         H  0.23639097  0.07717551  0.29899462     0.16900
H21         H  0.12068020  0.23953644  0.19196338     0.16900
H22         H  0.38909551  0.28782200  0.21267433     0.17000
H23         H  0.19425389  0.36371767  0.29981375     0.16900
N24         N  0.99571928  0.37690042  0.23532586    -0.35800
N25         N  0.08203354  0.46074644  0.23828413    -0.56400
N26         N  0.99486816  0.55194781  0.24494185    -0.35800
N27         N  0.90675951  0.47050168  0.25420202    -0.56400
C28         C  0.04189676  0.34607388  0.24948108     0.27700
C29         C  0.94986987  0.35038535  0.25119285     0.27700
C30         C  0.04148248  0.58133548  0.25525396     0.27700
C31         C  0.94884298  0.58593756  0.26433347     0.27700
C32         C  0.11406704  0.41168129  0.22510190     0.36400
C33         C  0.11440294  0.50355947  0.22660587     0.36400
C34         C  0.88026665  0.42521324  0.23107207     0.36400
C35         C  0.87723485  0.51750658  0.23992475     0.36400
C36         C  0.02516924  0.30011807  0.27550718    -0.21100
C37         C  0.96689189  0.30244082  0.27607079    -0.21100
C38         C  0.02481942  0.63437427  0.28206746    -0.21100
C39         C  0.96657091  0.63716882  0.28802171    -0.21100
C40         C  0.16680084  0.42343391  0.20451684    -0.22200
C41         C  0.16690734  0.48145615  0.20520129    -0.22200
C42         C  0.83636950  0.44346912  0.19975795    -0.22200
C43         C  0.83299960  0.50196977  0.20672280    -0.22200
C44         C  0.09853754  0.35715359  0.23727065    -0.17500
C45         C  0.89364148  0.36794653  0.24082969    -0.17500
C46         C  0.89148081  0.57405640  0.25487296    -0.17500
C47         C  0.09836913  0.56228415  0.23894754    -0.17500
H48         H  0.05214301  0.26891223  0.29333546     0.15400
H49         H  0.94027684  0.27284370  0.29362876     0.15400
H50         H  0.05175797  0.66771079  0.29603334     0.15400
H51         H  0.94023152  0.67329678  0.30683188     0.15400
H52         H  0.20185819  0.39332989  0.19110458     0.13700
H53         H  0.20194284  0.50462671  0.19206005     0.13700
H54         H  0.81117594  0.41690892  0.17278446     0.13700
H55         H  0.80349943  0.52975354  0.18713289     0.13700
H56         H  0.99540230  0.41125715  0.21154933     0.26900
H57         H  0.99389917  0.51351242  0.22012856     0.26900
C58         C  0.79140943  0.75975665  0.20868983     0.30800
C59         C  0.71560216  0.72044562  0.27893271     0.30800
C60         C  0.73233734  0.74956552  0.18452785    -0.05400
C61         C  0.80994675  0.70470177  0.23382611    -0.06200
C62         C  0.77567860  0.80179940  0.26261148    -0.06100
C63         C  0.69496341  0.72606815  0.21873657    -0.05400
C64         C  0.77119830  0.68222827  0.26775161    -0.06200
C65         C  0.73625056  0.78011701  0.29698650    -0.06100
C66         C  0.64592585  0.71920353  0.18869442    -0.31500
N67         N  0.64959604  0.74412822  0.13986810     0.15000
C68         C  0.70260160  0.76384052  0.13803875    -0.31500
H69         H  0.71861128  0.78825313  0.10606190     0.17000
C70         C  0.79545669  0.62858747  0.27686427    -0.30500
N71         N  0.84924678  0.62148966  0.25360375     0.13800
C72         C  0.85798296  0.66851912  0.22795627    -0.30400
C73         C  0.72216069  0.81978156  0.34213585    -0.30700
N74         N  0.75260612  0.86546629  0.33967396     0.14300
H75         H  0.69168501  0.81574004  0.37564907     0.16900
C76         C  0.78521567  0.85584641  0.29055301    -0.30700
H77         H  0.81388913  0.88553262  0.27651743     0.16900
H78         H  0.89625194  0.67514284  0.20443395     0.16900
H79         H  0.60942774  0.69849818  0.20245843     0.17000
H80         H  0.77517472  0.59654126  0.29746174     0.16900
N81         N  0.26257749  0.98085239  0.41235737    -0.35800
N82         N  0.26984489  0.06993853  0.50660176    -0.56400
N83         N  0.26611602  0.98441119  0.58387884    -0.35800
N84         N  0.27225633  0.89420209  0.48973342    -0.56400
C85         C  0.28495322  0.02293863  0.38609009     0.27700
C86         C  0.26783383  0.93233983  0.37664821     0.27700
C87         C  0.27112096  0.03200764  0.61952079     0.27700
C88         C  0.28999402  0.93971693  0.60785978     0.27700
C89         C  0.26283377  0.10104837  0.46235756     0.36400
C90         C  0.24732988  0.10209415  0.55312237     0.36400
C91         C  0.24755601  0.86527564  0.44605931     0.36400
C92         C  0.26728343  0.86380876  0.53467813     0.36400
C93         C  0.30640425  0.99972136  0.33353238    -0.21100
C94         C  0.29439936  0.94318735  0.32715447    -0.21100
C95         C  0.29870237  0.01775655  0.66662963    -0.21100
C96         C  0.31149917  0.95990391  0.65881280    -0.21100
C97         C  0.23541670  0.15286378  0.48083396    -0.22200
C98         C  0.22538943  0.15351101  0.53788387    -0.22200
C99         C  0.22628089  0.81689430  0.46426471    -0.22200
C100        C  0.23982635  0.81536708  0.51963215    -0.22200
C101        C  0.27939693  0.08251546  0.40532171    -0.17500
C102        C  0.24958691  0.87873568  0.38884148    -0.17500
C103        C  0.28420805  0.88094170  0.58995533    -0.17500
C104        C  0.25168642  0.08782733  0.60966937    -0.17500
H105        H  0.32733398  0.02154516  0.30215630     0.15400
H106        H  0.30510575  0.91328584  0.29075842     0.15400
H107        H  0.30925755  0.04609625  0.70245063     0.15400
H108        H  0.33281266  0.93503290  0.68813726     0.15400
H109        H  0.22154577  0.18572617  0.45552191     0.13700
H110        H  0.20417520  0.18801161  0.56498181     0.13700
H111        H  0.20320491  0.78565199  0.44029845     0.13700
H112        H  0.22857386  0.78345290  0.54633462     0.13700
H113        H  0.23928990  0.98579930  0.45017263     0.26900
H114        H  0.24179449  0.98221695  0.54841434     0.26900
N115        N  0.73403387  0.01573828  0.41079787    -0.35800
N116        N  0.72594955  0.10587210  0.50487638    -0.56400
N117        N  0.73808428  0.01801816  0.58293016    -0.35800
N118        N  0.73284808  0.92907763  0.48919755    -0.56400
C119        C  0.71049223  0.06022901  0.38599623     0.27700
C120        C  0.73004198  0.96772572  0.37533747     0.27700
C121        C  0.73169389  0.06672456  0.61849761     0.27700
C122        C  0.71770834  0.97500274  0.60965066     0.27700
C123        C  0.73022610  0.13682862  0.46010379     0.36400
C124        C  0.74926104  0.13540017  0.54918201     0.36400
C125        C  0.75462782  0.89740627  0.44205669     0.36400
C126        C  0.73949905  0.89693626  0.53289580     0.36400
C127        C  0.69020491  0.03936832  0.33463395    -0.21100
C128        C  0.70335416  0.98151533  0.32757700    -0.21100
C129        C  0.70632858  0.05503230  0.66829770    -0.21100
C130        C  0.69619757  0.99798916  0.66229283    -0.21100
C131        C  0.75583432  0.18619947  0.47600647    -0.22200
C132        C  0.76890385  0.18473040  0.53153893    -0.22200
C133        C  0.77562554  0.84536284  0.45636933    -0.22200
C134        C  0.76542163  0.84466540  0.51328200    -0.22200
C135        C  0.71469714  0.11944515  0.40416582    -0.17500
C136        C  0.74980427  0.91188201  0.38549096    -0.17500
C137        C  0.72433073  0.91506969  0.59045550    -0.17500
C138        C  0.74801914  0.12131486  0.60637160    -0.17500
H139        H  0.66960946  0.06368042  0.30436384     0.15400
H140        H  0.69384816  0.95283997  0.29161459     0.15400
H141        H  0.69507218  0.08473353  0.70471068     0.15400
H142        H  0.67621981  0.97579329  0.69396055     0.15400
H143        H  0.76642376  0.21870313  0.44974562     0.13700
H144        H  0.79087798  0.21653468  0.55591903     0.13700
H145        H  0.79644262  0.81144819  0.42846013     0.13700
H146        H  0.77780153  0.81028540  0.53753257     0.13700
H147        H  0.75738479  0.01828148  0.44699855     0.26900
H148        H  0.76083041  0.01386569  0.54474105     0.26900
C149        C  0.29907206  0.72198264  0.72952913     0.30800
C150        C  0.22921543  0.80983234  0.77583157     0.30800
C151        C  0.29230642  0.77214461  0.69217089    -0.05400
C152        C  0.23661617  0.70793408  0.74012824    -0.06200
C153        C  0.31500410  0.75066234  0.78723514    -0.06100
C154        C  0.25639193  0.81572621  0.71741017    -0.05400
C155        C  0.20138790  0.75203005  0.76628422    -0.06200
C156        C  0.27992393  0.79505833  0.81192290    -0.06100
C157        C  0.24973633  0.85659555  0.68098240    -0.31500
N158        N  0.28130343  0.84213052  0.63372582     0.15000
C159        C  0.30679775  0.78931992  0.63880146    -0.31500
H160        H  0.33309858  0.76507442  0.60622983     0.17000
C161        C  0.15108765  0.72837911  0.78036598    -0.30500
N162        N  0.15344711  0.67226716  0.75997143     0.13800
C163        C  0.20494005  0.66057189  0.73350713    -0.30400
C164        C  0.30113798  0.80916273  0.86524411    -0.30700
N165        N  0.34931944  0.77597269  0.87101703     0.14300
H166        H  0.28289674  0.84061100  0.89743703     0.16900
C167        C  0.35712162  0.73980473  0.82407446    -0.30700
H168        H  0.39164219  0.70771846  0.81758267     0.16900
H169        H  0.21884103  0.61979453  0.71168814     0.16900
H170        H  0.22316573  0.89528776  0.68793187     0.17000
H171        H  0.11568995  0.75044992  0.80451612     0.16900
N172        N  0.09406151  0.52847824  0.76225066    -0.35800
N173        N  0.00574087  0.44616491  0.76441964    -0.56400
N174        N  0.91901583  0.53803502  0.76185845    -0.35800
N175        N  0.00620784  0.62281650  0.77183820    -0.56400
C176        C  0.12513360  0.48111891  0.77414715     0.27700
C177        C  0.12512353  0.57424312  0.77468666     0.27700
C178        C  0.88688263  0.49435419  0.77245842     0.27700
C179        C  0.88782768  0.58736097  0.77767809     0.27700
C180        C  0.05275663  0.41099748  0.75186124     0.36400
C181        C  0.96063216  0.41607570  0.74929031     0.36400
C182        C  0.05224084  0.64996905  0.75681926     0.36400
C183        C  0.96013612  0.65510468  0.75863733     0.36400
C184        C  0.17636612  0.49716052  0.79476858    -0.21100
C185        C  0.17629354  0.55551222  0.79531775    -0.21100
C186        C  0.83511015  0.51636145  0.79591633    -0.21100
C187        C  0.83591729  0.57469153  0.79938714    -0.21100
C188        C  0.03735287  0.35888814  0.72817892    -0.22200
C189        C  0.97937752  0.36219450  0.72623488    -0.22200
C190        C  0.03504970  0.69911517  0.73386435    -0.22200
C191        C  0.97700053  0.70214862  0.73490682    -0.22200
C192        C  0.10930584  0.42373461  0.76420329    -0.17500
C193        C  0.10957795  0.63172541  0.76452020    -0.17500
C194        C  0.90291054  0.64305905  0.76789333    -0.17500
C195        C  0.90269269  0.43531761  0.75949013    -0.17500
H196        H  0.21039460  0.46971283  0.80808944     0.15400
H197        H  0.21014076  0.58115364  0.80968135     0.15400
H198        H  0.80044104  0.49298297  0.80960860     0.15400
H199        H  0.80230032  0.60457174  0.81644471     0.15400
H200        H  0.06502236  0.32228380  0.71315711     0.13700
H201        H  0.95409062  0.32861916  0.70934080     0.13700
H202        H  0.06136756  0.72880190  0.71610934     0.13700
H203        H  0.95032833  0.73390754  0.71756150     0.13700
H204        H  0.05669028  0.52899662  0.74182038     0.26900
H205        H  0.95697560  0.53452747  0.73965758     0.26900
C206        C  0.79421640  0.25716754  0.78754864     0.30800
C207        C  0.72859926  0.31611898  0.71777918     0.30800
C208        C  0.73238139  0.27443972  0.80897038    -0.05400
C209        C  0.81646103  0.31317460  0.77095722    -0.06200
C210        C  0.78315240  0.22344686  0.72884690    -0.06100
C211        C  0.69767112  0.30431286  0.77428286    -0.05400
C212        C  0.78236866  0.34452912  0.73855892    -0.06200
C213        C  0.74986265  0.25534269  0.69510809    -0.06100
C214        C  0.64358754  0.30914689  0.80159135    -0.31500
N215        N  0.64509977  0.28278790  0.85007205     0.15000
C216        C  0.69917912  0.26090668  0.85355065    -0.31500
H217        H  0.71361559  0.23564434  0.88608313     0.17000
C218        C  0.80852982  0.39512843  0.73377375    -0.30500
N219        N  0.85958288  0.39330580  0.75879980     0.13800
C220        C  0.86446603  0.34280073  0.78110270    -0.30400
C221        C  0.73193322  0.22003036  0.65096472    -0.30700
N222        N  0.75503965  0.16683203  0.65203781     0.14300
H223        H  0.70226507  0.23239491  0.62025590     0.16900
C224        C  0.78496960  0.16758035  0.70077459    -0.30700
H225        H  0.80522150  0.13017651  0.71555936     0.16900
H226        H  0.90051572  0.32842261  0.80376269     0.16900
H227        H  0.60576613  0.33033416  0.78766931     0.17000
H228        H  0.79199412  0.43017078  0.71236873     0.16900
N229        N  0.50072655  0.73988109  0.08869112    -0.35800
N230        N  0.58449693  0.77083278  0.00142810    -0.56400
N231        N  0.49392523  0.77999208  0.92409993    -0.35800
N232        N  0.40937983  0.75992458  0.01263014    -0.56400
C233        C  0.54608441  0.75488284  0.11911051     0.27700
C234        C  0.45401239  0.74456356  0.12415365     0.27700
C235        C  0.53726854  0.79595182  0.89210176     0.27700
C236        C  0.44494849  0.79576973  0.90046120     0.27700
C237        C  0.61905947  0.75131098  0.04061667     0.36400
C238        C  0.61544522  0.76736418  0.95203070     0.36400
C239        C  0.38244448  0.73231947  0.05160510     0.36400
C240        C  0.37798726  0.75588337  0.96597899     0.36400
C241        C  0.52711234  0.77093914  0.17417617    -0.21100
C242        C  0.46967133  0.76363737  0.17747570    -0.21100
C243        C  0.51551896  0.82256101  0.84789869    -0.21100
C244        C  0.45736171  0.82266737  0.85329276    -0.21100
C245        C  0.67170934  0.73527464  0.01521466    -0.22200
C246        C  0.66957894  0.74569509  0.95987582    -0.22200
C247        C  0.33441505  0.71010556  0.02884448    -0.22200
C248        C  0.33143214  0.72552051  0.97508707    -0.22200
C249        C  0.60440109  0.75032276  0.09924767    -0.17500
C250        C  0.39786039  0.73189467  0.10894324    -0.17500
C251        C  0.39018346  0.77928513  0.91504925    -0.17500
C252        C  0.59584998  0.78373288  0.89980059    -0.17500
H253        H  0.55177876  0.78731919  0.20859040     0.15400
H254        H  0.44237380  0.77291926  0.21463422     0.15400
H255        H  0.53909981  0.83932514  0.81469701     0.15400
H256        H  0.42753980  0.83898321  0.82462167     0.15400
H257        H  0.70811847  0.71678184  0.03361033     0.13700
H258        H  0.70377986  0.73700086  0.92872275     0.13700
H259        H  0.30450540  0.68525292  0.04877527     0.13700
H260        H  0.29939504  0.71472176  0.94540005     0.13700
H261        H  0.50256538  0.72234060  0.04699744     0.26900
H262        H  0.49759340  0.75330533  0.95571645     0.26900
N263        N  0.50206395  0.23325595  0.07647603    -0.35800
N264        N  0.41215678  0.24763335  0.00134376    -0.56400
N265        N  0.49688517  0.27613427  0.91286355    -0.35800
N266        N  0.58795626  0.24840068  0.98705634    -0.56400
C267        C  0.45831270  0.21776075  0.10821587     0.27700
C268        C  0.55069320  0.21474002  0.09892190     0.27700
C269        C  0.45185347  0.25739890  0.88452890     0.27700
C270        C  0.54356187  0.26608616  0.87766356     0.27700
C271        C  0.38096316  0.25170689  0.05034946     0.36400
C272        C  0.37877280  0.26837315  0.96216921     0.36400
C273        C  0.61744852  0.25531841  0.03465515     0.36400
C274        C  0.61273313  0.27951203  0.94987668     0.36400
C275        C  0.47951246  0.18863207  0.15104467    -0.21100
C276        C  0.53776333  0.18663412  0.14513210    -0.21100
C277        C  0.47085284  0.23283536  0.83207327    -0.21100
C278        C  0.52827756  0.23977222  0.82688242    -0.21100
C279        C  0.32751001  0.27553929  0.04243507    -0.22200
C280        C  0.32627979  0.28668772  0.98696962    -0.22200
C281        C  0.66028971  0.29117170  0.02791005    -0.22200
C282        C  0.65595456  0.30760127  0.97471644    -0.22200
C283        C  0.40002815  0.23260151  0.10152126    -0.17500
C284        C  0.60560165  0.23071235  0.08466186    -0.17500
C285        C  0.59945779  0.27848572  0.89245485    -0.17500
C286        C  0.39384698  0.26507729  0.90359808    -0.17500
H287        H  0.45554617  0.17166980  0.18385571     0.15400
H288        H  0.56732122  0.16861299  0.17307007     0.15400
H289        H  0.44596216  0.20946315  0.80209914     0.15400
H290        H  0.55598683  0.22428096  0.79124916     0.15400
H291        H  0.29318774  0.28439154  0.07344759     0.13700
H292        H  0.29058145  0.30608499  0.96733453     0.13700
H293        H  0.68935412  0.30634896  0.05911519     0.13700
H294        H  0.67843531  0.33983707  0.95738949     0.13700
H295        H  0.49938110  0.26147780  0.04608768     0.26900
H296        H  0.49522357  0.29835052  0.95278258     0.26900
C297        C  0.71628307  0.74062039  0.71295222     0.30800
C298        C  0.76704538  0.82503128  0.77204550     0.30800
C299        C  0.68467119  0.76509002  0.76955563    -0.05400
C300        C  0.77748362  0.72673640  0.73101221    -0.07800
C301        C  0.72124997  0.79516294  0.68156723    -0.06100
C302        C  0.71203502  0.80725299  0.80082814    -0.05400
C303        C  0.80320004  0.76845912  0.76237347    -0.06200
C304        C  0.74692831  0.83691306  0.71308968    -0.06100
C305        C  0.68273535  0.81786739  0.85265978    -0.31500
N306        N  0.63632077  0.78667441  0.85267485     0.15000
C307        C  0.63631488  0.75592131  0.80135616    -0.31500
H308        H  0.60415000  0.72744616  0.78877619     0.17000
C309        C  0.85231339  0.74239049  0.78235408    -0.30500
N310        N  0.85794809  0.68665216  0.76073758     0.13800
C311        C  0.81273764  0.67763021  0.72873751    -0.30400
C312        C  0.74863518  0.88337323  0.68281305    -0.30700
N313        N  0.72516176  0.87344289  0.63254807     0.14300
H314        H  0.76654525  0.92259042  0.69637607     0.16900
C315        C  0.70743607  0.81912266  0.63117702    -0.30700
H316        H  0.68558671  0.79863885  0.59654302     0.16900
H317        H  0.80559995  0.63720084  0.70620809     0.16900
H318        H  0.69506512  0.84509670  0.88851691     0.17000
H319        H  0.88087242  0.76222187  0.81150330     0.16900
C320        C  0.70123099  0.28349138  0.26828429     0.30800
C321        C  0.76830968  0.19449769  0.21921938     0.30800
C322        C  0.68337761  0.25612225  0.21095412    -0.05400
C323        C  0.76379923  0.29559832  0.25760391    -0.06200
C324        C  0.70666942  0.23158915  0.30422100    -0.06100
C325        C  0.71784337  0.21233204  0.18429033    -0.05400
C326        C  0.79809330  0.25103333  0.23063246    -0.06200
C327        C  0.74129170  0.18753953  0.27751021    -0.06100
C328        C  0.69572070  0.20040878  0.13117668    -0.31500
N329        N  0.64665656  0.23282721  0.12818449     0.15000
C330        C  0.63918774  0.26689043  0.17653136    -0.31500
H331        H  0.60358421  0.29741021  0.18570865     0.17000
C332        C  0.85035541  0.27293648  0.22048598    -0.30500
N333        N  0.84899648  0.32834122  0.24282729     0.13800
C334        C  0.79696744  0.34119231  0.26761669    -0.30400
C335        C  0.74721216  0.14530594  0.31257822    -0.30700
N336        N  0.71644068  0.15903260  0.36057780     0.14300
H337        H  0.77324549  0.10638884  0.30421540     0.16900
C338        C  0.69174240  0.21268934  0.35689814    -0.30700
H339        H  0.66548309  0.23646541  0.38987803     0.16900
H340        H  0.78387081  0.38147943  0.29080885     0.16900
H341        H  0.71367931  0.17072209  0.09732215     0.17000
H342        H  0.88634515  0.25045215  0.19766606     0.16900
C343        C  0.28058095  0.27660035  0.72290848     0.30800
C344        C  0.21126066  0.22854226  0.79327443     0.30800
C345        C  0.30513940  0.26948207  0.78050083    -0.05400
C346        C  0.22372710  0.31166133  0.73947254    -0.06200
C347        C  0.26181292  0.21792052  0.70193873    -0.06100
C348        C  0.27000750  0.24487462  0.81634306    -0.05400
C349        C  0.18793185  0.28719953  0.77601469    -0.06200
C350        C  0.22713997  0.19209498  0.73652715    -0.06100
C351        C  0.29842458  0.24256069  0.86617107    -0.31500
N352        N  0.34952373  0.26524927  0.86200579     0.15000
C353        C  0.35283320  0.28370226  0.80992731    -0.31500
H354        H  0.38755511  0.30580016  0.79432600     0.17000
C355        C  0.14484421  0.32880631  0.79260638    -0.30500
N356        N  0.15148516  0.37596279  0.76553795     0.13800
C357        C  0.20083161  0.36650788  0.73465219    -0.30400
C358        C  0.21902351  0.13863475  0.70730134    -0.30700
N359        N  0.24745682  0.13365344  0.65589259     0.14300
H360        H  0.19397812  0.10637202  0.72228397     0.16900
C361        C  0.27352700  0.18213328  0.65341033    -0.30700
H362        H  0.29987152  0.19061630  0.61806932     0.16900
H363        H  0.21889055  0.39762547  0.71075843     0.16900
H364        H  0.28332568  0.22455602  0.90277063     0.17000
H365        H  0.11174483  0.32657402  0.82375377     0.16900
C366        C  0.26821225  0.68414327  0.28100165     0.30800
C367        C  0.20347504  0.74148022  0.21037587     0.30800
C368        C  0.30091733  0.69846316  0.22605981    -0.05400
C369        C  0.21699906  0.65379028  0.25796730    -0.06200
C370        C  0.24385822  0.74378343  0.30406345    -0.06100
C371        C  0.26626397  0.72831224  0.19166638    -0.05400
C372        C  0.18342408  0.68388427  0.22457441    -0.06200
C373        C  0.21036687  0.77513524  0.26977941    -0.06100
C374        C  0.29909402  0.74592046  0.14929550    -0.31500
N375        N  0.35338047  0.72496460  0.15188689     0.15000
C376        C  0.35534824  0.69645393  0.19928594    -0.31500
H377        H  0.39353936  0.67578340  0.21308200     0.17000
C378        C  0.13652044  0.65291263  0.21269824    -0.30500
N379        N  0.14122588  0.60383153  0.23732201     0.13800
C380        C  0.19121949  0.60350957  0.26398942    -0.30400
C381        C  0.21209362  0.83183069  0.29507448    -0.30700
N382        N  0.24197925  0.83315166  0.34374218     0.14300
H383        H  0.19440557  0.86928104  0.27831990     0.16900
C384        C  0.26384093  0.77994268  0.34617426    -0.30700
H385        H  0.29434572  0.76814451  0.37636489     0.16900
H386        H  0.20651136  0.57019420  0.28822569     0.16900
H387        H  0.28392596  0.77296660  0.11849092     0.17000
H388        H  0.10089554  0.66584969  0.18867892     0.16900
C389        C  0.10779733  0.80485260  0.00854801     0.43200
N390        N  0.05924274  0.86305242  0.96178346     0.02100
C391        C  0.07688720  0.14741607  0.01977903    -0.05800
H392        H  0.04489000  0.03114520  0.19223826     0.07600
C393        C  0.86857722  0.97032821  0.12720337    -0.06100
Co394      Co  0.10146584  0.97541965  0.99136875     0.74200
N395        N  0.05930925  0.00724146  0.10556201    -0.25300
Co396      Co  0.99938563  0.05848296  0.06913511     0.74100
C397        C  0.89019780  0.99345617  0.18148405     0.43300
N398        N  0.89459776  0.90391664  0.99443331     0.01700
N399        N  0.93955239  0.01903719  0.11255952     0.01800
N400        N  0.14676631  0.08524916  0.98482462    -0.46100
H401        H  0.17207011  0.86942922  0.03056143     0.07600
N402        N  0.09927319  0.97566056  0.07629987     0.02100
N403        N  0.93753958  0.10391995  0.02699924     0.01900
C404        C  0.89425616  0.15974725  0.97428562     0.43500
N405        N  0.93407892  0.87237603  0.96416731    -0.24800
C406        C  0.12022284  0.00934330  0.87176143    -0.05700
N407        N  0.05941325  0.81205300  0.98010171    -0.45900
N408        N  0.94110018  0.15279244  0.00485391    -0.46100
C409        C  0.09723727  0.99322557  0.81636533     0.43200
N410        N  0.10410477  0.05975552  0.00336286     0.02100
N411        N  0.93391889  0.96008231  0.88762555    -0.24800
N412        N  0.10282677  0.88981551  0.97995401    -0.25300
N413        N  0.89408423  0.98965521  0.91877311     0.01700
H414        H  0.95220215  0.95100759  0.79970836     0.07600
H415        H  0.82461598  0.09967477  0.95745735     0.07700
N416        N  0.06308090  0.09433647  0.02638657    -0.25300
N417        N  0.89910495  0.99213562  0.08806041    -0.24900
N418        N  0.05491129  0.95222537  0.88073198     0.02100
C419        C  0.12665069  0.97883186  0.16091981     0.43500
C420        C  0.93060310  0.81852723  0.97451815    -0.06200
N421        N  0.89279951  0.07786067  0.01006024    -0.24900
H422        H  0.83038202  0.94868871  0.11927393     0.07700
N423        N  0.13905302  0.95602699  0.10779416    -0.46100
H424        H  0.96037757  0.78362542  0.95980357     0.07600
C425        C  0.87385823  0.00701846  0.83518241     0.43300
C426        C  0.13756807  0.85551745  0.00521043    -0.05700
Co427      Co  0.99574526  0.90948257  0.92175757     0.73800
N428        N  0.86418342  0.87444901  0.02591227    -0.45900
C429        C  0.13285050  0.14076558  0.99008447     0.43600
N430        N  0.05266200  0.96322387  0.82814759    -0.45900
Co431      Co  0.89319677  0.99068251  0.00331934     0.73900
C432        C  0.86135649  0.11153505  0.98031496    -0.06200
C433        C  0.06880603  0.00480586  0.15940965    -0.05700
N434        N  0.09474853  0.97848360  0.90719212    -0.25300
N435        N  0.93855437  0.01620832  0.16703401    -0.46000
H436        H  0.05113613  0.18574525  0.03328791     0.07600
C437        C  0.92756625  0.97197988  0.83517517    -0.06200
Cl438      Cl  0.99736327  0.98332506  0.99656262    -0.49200
C439        C  0.88655641  0.82089329  0.01813193     0.43400
H440        H  0.15597802  0.03404934  0.88157416     0.07600
N441        N  0.85902488  0.01925533  0.88975821    -0.45900
C442        C  0.53209389  0.45978301  0.28831508     0.43200
N443        N  0.54563080  0.49360119  0.37268883     0.02100
C444        C  0.41295374  0.38916890  0.59193750    -0.05800
H445        H  0.27804024  0.50925043  0.48519691     0.07600
C446        C  0.41589086  0.66491000  0.51630204    -0.06100
Co447      Co  0.47694265  0.42715929  0.44151434     0.74200
N448        N  0.36790467  0.48663548  0.47704417    -0.25300
Co449      Co  0.40855874  0.50428703  0.55280883     0.74100
C450        C  0.35952528  0.65164656  0.49699750     0.43300
N451        N  0.54540941  0.62798566  0.48877847     0.01700
N452        N  0.39178880  0.58871016  0.54825886     0.01800
N453        N  0.43862180  0.33642263  0.50962170    -0.46100
H454        H  0.44906163  0.42628695  0.31175326     0.07600
N455        N  0.39932894  0.46386007  0.43398999     0.02100
N456        N  0.45046687  0.52036258  0.62518059     0.01900
C457        C  0.46504651  0.54219178  0.71201029     0.43500
N458        N  0.56820950  0.59668251  0.44446186    -0.24800
C459        C  0.57373643  0.35122733  0.48502442    -0.05700
N460        N  0.56464139  0.49426684  0.32066610    -0.45900
N461        N  0.43455900  0.50982594  0.67594098    -0.46100
C462        C  0.62969098  0.36238822  0.50591307     0.43200
N463        N  0.44851331  0.39016937  0.50861018     0.02100
N464        N  0.62703655  0.52933244  0.52111131    -0.24800
N465        N  0.49977569  0.46624562  0.37418039    -0.25300
N466        N  0.59689252  0.55485406  0.56400211     0.01700
H467        H  0.71485195  0.49861662  0.51210527     0.07600
H468        H  0.54681484  0.58244418  0.69101132     0.07700
N469        N  0.43006362  0.42151215  0.55433826    -0.25300
N470        N  0.43375865  0.62232199  0.54584793    -0.24900
N471        N  0.60227730  0.42632448  0.45301643     0.02100
C472        C  0.31825039  0.47431307  0.39831464     0.43500
C473        C  0.58049869  0.63003708  0.40544053    -0.06200
N474        N  0.49473447  0.55025072  0.62559212    -0.24900
H475        H  0.44198015  0.69628022  0.50181789     0.07700
N476        N  0.37292719  0.45997958  0.38699312    -0.46100
H477        H  0.60419691  0.61661869  0.36664096     0.07600
C478        C  0.67785137  0.53813080  0.59839105     0.43300
C479        C  0.48237133  0.45403987  0.32239806    -0.05700
Co480      Co  0.58756466  0.51166068  0.44591527     0.73800
N481        N  0.54537120  0.68284970  0.48409864    -0.45900
C482        C  0.41558207  0.33376469  0.56086799     0.43600
N483        N  0.64511185  0.40782270  0.48160620    -0.45900
Co484      Co  0.51774059  0.59081499  0.55749121     0.73900
C485        C  0.51351215  0.55559076  0.67767362    -0.06200
C486        C  0.31492245  0.49443332  0.45897382    -0.05700
N487        N  0.55924288  0.39388387  0.45416098    -0.25300
N488        N  0.34687128  0.60607703  0.52214650    -0.46000
H489        H  0.38781998  0.40431709  0.62947796     0.07600
C490        C  0.67931257  0.51696760  0.53853965    -0.06200
Cl491      Cl  0.49773817  0.50878265  0.49935393    -0.49200
C492        C  0.56553025  0.68732346  0.43190982     0.43400
H493        H  0.54515223  0.32209185  0.49985234     0.07600
N494        N  0.62419802  0.55764400  0.61055482    -0.45900
C495        C  0.09993190  0.81366947  0.11302752    -0.11500
C496        C  0.11239146  0.77928090  0.06187639     0.05500
C497        C  0.14760535  0.73011034  0.06256479    -0.06800
C498        C  0.17587516  0.72047479  0.11100593    -0.07500
C499        C  0.16846446  0.75773185  0.16110157    -0.02100
C500        C  0.12569319  0.80153272  0.16317571     0.04700
N501        N  0.10494274  0.83033307  0.21563428     0.67200
H502        H  0.07230494  0.85157584  0.11340709     0.16100
H503        H  0.20472317  0.68311513  0.10930355     0.15800
N504        N  0.15776045  0.69104083  0.01344726     0.74900
O505        O  0.10099716  0.88365853  0.22277208    -0.38500
O506        O  0.08248856  0.80267951  0.25165437    -0.38500
O507        O  0.20072455  0.69486512  0.98217857    -0.39200
O508        O  0.13264087  0.64565596  0.00936893    -0.39200
C509        C  0.35150682  0.65548102  0.33790056    -0.11500
C510        C  0.29316527  0.65806229  0.33137965     0.05500
C511        C  0.25774548  0.65226314  0.37993351    -0.06800
C512        C  0.28095453  0.65167126  0.43263799    -0.07500
C513        C  0.33860793  0.65526441  0.43959081    -0.02100
C514        C  0.37401818  0.65320077  0.39107447     0.04700
N515        N  0.43330087  0.65009495  0.39494378     0.67200
H516        H  0.37995878  0.65863710  0.30264966     0.16100
H517        H  0.25309268  0.64958465  0.46896042     0.15800
N518        N  0.19749331  0.65111678  0.37828297     0.74900
O519        O  0.45908386  0.69448514  0.39316852    -0.38500
O520        O  0.45995088  0.60290757  0.39713351    -0.38500
O521        O  0.17492484  0.60677665  0.38971351    -0.39200
O522        O  0.16747841  0.69711019  0.38277444    -0.39200
C523        C  0.39526840  0.25989606  0.60955104    -0.11500
C524        C  0.37337147  0.29635750  0.57323620     0.05500
C525        C  0.31742753  0.32030991  0.58244144    -0.06800
C526        C  0.29078449  0.31718321  0.63378802    -0.07500
C527        C  0.31847822  0.29257943  0.67699481    -0.02100
C528        C  0.37166469  0.26193589  0.66333361     0.04700
N529        N  0.40221453  0.23085352  0.70177866     0.67200
H530        H  0.43701311  0.23884992  0.60073401     0.16100
H531        H  0.24732712  0.33333215  0.63851846     0.15800
N532        N  0.29045975  0.35655606  0.54545473     0.74900
O533        O  0.38908622  0.18130089  0.70843565    -0.38500
O534        O  0.45205871  0.24386838  0.71145284    -0.38500
O535        O  0.23914125  0.35043858  0.53525635    -0.39200
O536        O  0.30926480  0.40423365  0.54045500    -0.39200
C537        C  0.21207086  0.15602669  0.85855247    -0.11500
C538        C  0.17920225  0.19728326  0.83467318     0.05500
C539        C  0.12470641  0.21385550  0.85859302    -0.06800
C540        C  0.11181292  0.20093408  0.91329770    -0.07500
C541        C  0.15122816  0.16930216  0.94207368    -0.02100
C542        C  0.20248009  0.14757295  0.91394044     0.04700
N543        N  0.24528157  0.11605227  0.94100944     0.67200
H544        H  0.25152955  0.13838290  0.83796681     0.16100
H545        H  0.06935588  0.21071417  0.93095283     0.15800
N546        N  0.07904632  0.22954185  0.82418417     0.74900
O547        O  0.25654232  0.06436644  0.92464765    -0.38500
O548        O  0.27967584  0.14228829  0.97140553    -0.38500
O549        O  0.07267486  0.20003820  0.77828232    -0.39200
O550        O  0.03808781  0.26204976  0.84523925    -0.39200
C551        C  0.85342855  0.13330245  0.23058512    -0.11500
C552        C  0.80234875  0.13921539  0.20223657     0.05500
C553        C  0.77329427  0.08879616  0.18861558    -0.06800
C554        C  0.79589086  0.03678046  0.20248580    -0.07500
C555        C  0.85143973  0.03151585  0.21958711    -0.02100
C556        C  0.87435363  0.08073453  0.24430231     0.04700
N557        N  0.92066401  0.07753205  0.28093201     0.67200
H558        H  0.87307316  0.16985928  0.24973054     0.16100
H559        H  0.77393945  0.99915876  0.18996469     0.15800
N560        N  0.72004961  0.08866000  0.16236194     0.74900
O561        O  0.96937543  0.08760707  0.26359496    -0.38500
O562        O  0.91006164  0.08116198  0.33309924    -0.38500
O563        O  0.71887434  0.06793056  0.11182950    -0.39200
O564        O  0.67539326  0.09081279  0.19265476    -0.39200
C565        C  0.61114848  0.41248843  0.23833599    -0.11500
C566        C  0.56191342  0.40531919  0.26732675     0.05500
C567        C  0.55898117  0.35673344  0.29738494    -0.06800
C568        C  0.60810899  0.32411882  0.30651719    -0.07500
C569        C  0.66001683  0.33467745  0.28172907    -0.02100
C570        C  0.66001174  0.38020851  0.24658280     0.04700
N571        N  0.70833216  0.39538722  0.21692341     0.67200
H572        H  0.61360167  0.44856647  0.21415464     0.16100
H573        H  0.60387768  0.28617530  0.32719568     0.15800
N574        N  0.50612805  0.33537504  0.31220553     0.74900
O575        O  0.72364741  0.44473362  0.22984536    -0.38500
O576        O  0.71854437  0.37251387  0.16753672    -0.38500
O577        O  0.48164342  0.30483868  0.27551162    -0.39200
O578        O  0.49222390  0.33409359  0.36323944    -0.39200
C579        C  0.70709477  0.58301536  0.68347316    -0.11500
C580        C  0.71749919  0.57525677  0.62544469     0.05500
C581        C  0.73036769  0.62243400  0.59784028    -0.06800
C582        C  0.72032026  0.67661605  0.62525046    -0.07500
C583        C  0.70004776  0.68595294  0.68147290    -0.02100
C584        C  0.69331198  0.63707063  0.71064921     0.04700
N585        N  0.67488597  0.64054128  0.76830076     0.67200
H586        H  0.69863612  0.54666641  0.70562922     0.16100
H587        H  0.73247420  0.71111578  0.60261493     0.15800
N588        N  0.74771903  0.61672083  0.53997885     0.74900
O589        O  0.62936388  0.61919873  0.78087409    -0.38500
O590        O  0.70924905  0.65193065  0.80635042    -0.38500
O591        O  0.71098400  0.62438434  0.50408502    -0.39200
O592        O  0.79907502  0.62109150  0.52692257    -0.39200
C593        C  0.76188743  0.92230808  0.82119664    -0.11500
C594        C  0.79608705  0.87697839  0.79320423     0.05500
C595        C  0.84431855  0.89065091  0.76127822    -0.06800
C596        C  0.85231027  0.94709140  0.75456220    -0.07500
C597        C  0.83031633  0.98748033  0.79672758    -0.02100
C598        C  0.77790218  0.97769575  0.82193046     0.04700
N599        N  0.74361520  0.02254447  0.85275583     0.67200
H600        H  0.72086632  0.91621086  0.83919858     0.16100
H601        H  0.88802591  0.95656745  0.72860215     0.15800
N602        N  0.88165772  0.84858744  0.73028582     0.74900
O603        O  0.70910740  0.05176066  0.82666027    -0.38500
O604        O  0.73673919  0.02272493  0.90518547    -0.38500
O605        O  0.87635888  0.83837453  0.67807809    -0.39200
O606        O  0.92865638  0.83630142  0.75081760    -0.39200
C607        C  0.86528187  0.18407089  0.82484179    -0.11500
C608        C  0.83094109  0.23469439  0.83383791     0.05500
C609        C  0.83467070  0.26750921  0.88697090    -0.06800
C610        C  0.85988966  0.24372811  0.93173729    -0.07500
C611        C  0.88913795  0.19110360  0.92405984    -0.02100
C612        C  0.89766429  0.16399045  0.86856810     0.04700
N613        N  0.94175277  0.11968653  0.85549713     0.67200
H614        H  0.86917948  0.16178929  0.78325759     0.16100
H615        H  0.85567275  0.26648796  0.97333422     0.15800
N616        N  0.81537177  0.32595161  0.89649503     0.74900
O617        O  0.94836755  0.09553824  0.80615897    -0.38500
O618        O  0.98103898  0.11318451  0.88915831    -0.38500
O619        O  0.85189860  0.36241116  0.89911092    -0.39200
O620        O  0.76916201  0.33874455  0.92296381    -0.39200
C621        C  0.70936851  0.35606676  0.56803945    -0.11500
C622        C  0.65143195  0.35310581  0.56207558     0.05500
C623        C  0.61736400  0.34822081  0.61057202    -0.06800
C624        C  0.64226309  0.34234061  0.66241871    -0.07500
C625        C  0.70100290  0.34236105  0.66819665    -0.02100
C626        C  0.73451128  0.35106562  0.61931917     0.04700
N627        N  0.79482874  0.35194514  0.61896368     0.67200
H628        H  0.73615148  0.36142878  0.53174079     0.16100
H629        H  0.61508602  0.33511340  0.69728999     0.15800
N630        N  0.55731684  0.35201253  0.60929169     0.74900
O631        O  0.81691725  0.39707969  0.60924982    -0.38500
O632        O  0.82453632  0.30588259  0.61024904    -0.38500
O633        O  0.53115382  0.30804945  0.61398638    -0.39200
O634        O  0.53164615  0.39990588  0.62138772    -0.39200
C635        C  0.19330333  0.96645441  0.78521715    -0.11500
C636        C  0.13671127  0.96726334  0.77075160     0.05500
C637        C  0.11922119  0.91667098  0.74352805    -0.06800
C638        C  0.14188184  0.86580727  0.75997905    -0.07500
C639        C  0.19258871  0.86393333  0.78971361    -0.02100
C640        C  0.21911251  0.91627765  0.80103114     0.04700
N641        N  0.27368456  0.91938840  0.82438501     0.67200
H642        H  0.21234792  0.00602695  0.79693158     0.16100
H643        H  0.12457668  0.82753142  0.74160774     0.15800
N644        N  0.07347784  0.91663418  0.70604063     0.74900
O645        O  0.27712772  0.94197656  0.87399952    -0.38500
O646        O  0.31684873  0.91606911  0.79190079    -0.38500
O647        O  0.08477707  0.91374469  0.65404433    -0.39200
O648        O  0.02545073  0.90368261  0.72254019    -0.39200
C649        C  0.33275107  0.62434518  0.74604333    -0.11500
C650        C  0.34202551  0.67239679  0.71717444     0.05500
C651        C  0.39889221  0.68293197  0.70474020    -0.06800
C652        C  0.44228659  0.64582243  0.71939444    -0.07500
C653        C  0.43114242  0.59294127  0.73797287    -0.02100
C654        C  0.37596775  0.58526396  0.75623502     0.04700
N655        N  0.36285441  0.53684750  0.78378141     0.67200
H656        H  0.29321654  0.61890855  0.76701967     0.16100
H657        H  0.48499613  0.65670151  0.71047548     0.15800
N658        N  0.41432982  0.73451211  0.68438406     0.74900
O659        O  0.36585051  0.53934801  0.83641772    -0.38500
O660        O  0.33461004  0.49938327  0.75872681    -0.38500
O661        O  0.42673517  0.77487577  0.71918296    -0.39200
O662        O  0.43257895  0.73310130  0.63428330    -0.39200
C663        C  0.61878128  0.73895205  0.31964695    -0.11500
C664        C  0.67247706  0.71057035  0.32370882     0.05500
C665        C  0.69054230  0.70255506  0.37867935    -0.06800
C666        C  0.65485118  0.72118263  0.42516419    -0.07500
C667        C  0.59763089  0.73339083  0.41691507    -0.02100
C668        C  0.58229832  0.75185214  0.36580724     0.04700
N669        N  0.52937933  0.78252815  0.35970908     0.67200
H670        H  0.60669540  0.75798195  0.28272799     0.16100
H671        H  0.66809863  0.71253338  0.46644127     0.15800
N672        N  0.74480851  0.67690832  0.38860456     0.74900
O673        O  0.52338518  0.83380151  0.37952048    -0.38500
O674        O  0.49707093  0.76484339  0.32177674    -0.38500
O675        O  0.78274438  0.70761293  0.40764236    -0.39200
O676        O  0.74869918  0.62487140  0.39506513    -0.39200
C677        C  0.86965695  0.81113617  0.16620629    -0.11500
C678        C  0.83321073  0.76722037  0.16197296     0.05500
C679        C  0.83860357  0.72663872  0.11318997    -0.06800
C680        C  0.86636461  0.74043538  0.06542590    -0.07500
C681        C  0.89287308  0.79056870  0.06714470    -0.02100
C682        C  0.90324164  0.82064462  0.11954805     0.04700
N683        N  0.94656986  0.86057057  0.12555359     0.67200
H684        H  0.87232666  0.83747771  0.20530796     0.16100
H685        H  0.86246156  0.71468763  0.02590190     0.15800
N686        N  0.81635670  0.67166867  0.11084029     0.74900
O687        O  0.96435571  0.87558941  0.17357084    -0.38500
O688        O  0.97288824  0.87461476  0.08317591    -0.38500
O689        O  0.77000488  0.66380867  0.08790716    -0.39200
O690        O  0.85061460  0.62919305  0.11270961    -0.39200
C691        C  0.30856009  0.36201039  0.29102832    -0.11500
C692        C  0.29851694  0.31713613  0.32383233     0.05500
C693        C  0.27431573  0.33261335  0.37866326    -0.06800
C694        C  0.26778843  0.38945044  0.40073717    -0.07500
C695        C  0.28381415  0.43256041  0.36941213    -0.02100
C696        C  0.29750652  0.41902098  0.31164253     0.04700
N697        N  0.30548784  0.46269995  0.27485550     0.67200
H698        H  0.31861374  0.35319902  0.24686046     0.16100
H699        H  0.25356399  0.39972145  0.44399912     0.15800
N700        N  0.25061463  0.29191149  0.41053670     0.74900
O701        O  0.30889396  0.45045732  0.22231763    -0.38500
O702        O  0.30538262  0.51410961  0.29404870    -0.38500
O703        O  0.27645094  0.27617838  0.45201444    -0.39200
O704        O  0.19981101  0.28032919  0.40420277    -0.39200
C705        C  0.23411654  0.08581722  0.16842025    -0.11500
C706        C  0.20425007  0.12746313  0.20536340     0.05500
C707        C  0.15674487  0.11136340  0.23657679    -0.06800
C708        C  0.14371164  0.05520035  0.23240949    -0.07500
C709        C  0.16645939  0.01728925  0.18807605    -0.02100
C710        C  0.21498055  0.03166503  0.15838111     0.04700
N711        N  0.24571397  0.99189950  0.11824104     0.67200
H712        H  0.27382359  0.09364803  0.14878102     0.16100
H713        H  0.10913158  0.04357832  0.25858765     0.15800
N714        N  0.12400258  0.14990965  0.27652307     0.74900
O715        O  0.24175745  0.99738191  0.06665378    -0.38500
O716        O  0.28690718  0.96218456  0.13421353    -0.38500
O717        O  0.07473391  0.16592772  0.26391314    -0.39200
O718        O  0.13553828  0.15214558  0.32773413    -0.39200
loop_ 
_geom_bond_atom_site_label_1 
_geom_bond_atom_site_label_2 
_geom_bond_distance 
_geom_bond_site_symmetry_2 
_ccdc_geom_bond_type 
C1            C3   1.560       .  S
C1            C5   1.544       .  S
C1            C4   1.532       .  S
C1          C706   1.506       .  S
C2            C6   1.573       .  S
C2            C8   1.571       .  S
C2            C7   1.543       .  S
C2          C692   1.526       .  S
C3           C11   1.398       .  A
C3            C6   1.400       .  A
C4           C15   1.396       .  A
C4            C7   1.369       .  A
C5           C19   1.380       .  A
C5            C8   1.378       .  A
C6            C9   1.397       .  A
C7           C13   1.382       .  A
C8           C16   1.418       .  A
C9           N10   1.365       .  A
C9           H22   1.081       .  S
N10          C11   1.364       .  A
N10         C283   1.466       .  S
C11          H12   1.081       .  S
C13          N14   1.346       .  A
C13          H23   1.081       .  S
N14          C15   1.365       .  A
N14          C44   1.450       .  S
C15          H21   1.082       .  S
C16          N17   1.377       .  A
C16          H18   1.078       .  S
N17          C19   1.347       .  A
N17         C101   1.475       .  S
C19          H20   1.079       .  S
N24          C29   1.354       .  A
N24          C28   1.351   1_655  A
N24          H56   1.043       .  S
N25          C32   1.357       .  A
N25          C33   1.359       .  A
N26          C31   1.359       .  A
N26          C30   1.360   1_655  A
N26          H57   1.041       .  S
N27          C34   1.359       .  A
N27          C35   1.361       .  A
C28          C36   1.385       .  A
C28          C44   1.413       .  A
C29          C45   1.409       .  A
C29          C37   1.384       .  A
C30          C38   1.386       .  A
C30          C47   1.427       .  A
C31          C46   1.426       .  A
C31          C39   1.387       .  A
C32          C44   1.426       .  A
C32          C40   1.386       .  A
C33          C47   1.424       .  A
C33          C41   1.385       .  A
C34          C42   1.375       .  A
C34          C45   1.424       .  A
C35          C43   1.381       .  A
C35          C46   1.421       .  A
C36          C37   1.379   1_455  A
C36          H48   1.079       .  S
C37          H49   1.082       .  S
C38          C39   1.381   1_455  A
C38          H50   1.082       .  S
C39          H51   1.082       .  S
C40          C41   1.379       .  A
C40          H52   1.082       .  S
C41          H53   1.082       .  S
C42          C43   1.382       .  A
C42          H54   1.078       .  S
C43          H55   1.082       .  S
C45         N333   1.463       .  S
C46          N71   1.465       .  S
C47         N379   1.463       .  S
C58          C60   1.555       .  S
C58          C62   1.573       .  S
C58          C61   1.541       .  S
C58         C678   1.505       .  S
C59          C63   1.553       .  S
C59          C65   1.555       .  S
C59          C64   1.555       .  S
C59         C664   1.507       .  S
C60          C68   1.396       .  A
C60          C63   1.372       .  A
C61          C72   1.380       .  A
C61          C64   1.377       .  A
C62          C76   1.423       .  A
C62          C65   1.386       .  A
C63          C66   1.395       .  A
C64          C70   1.407       .  A
C65          C73   1.381       .  A
C66          N67   1.368       .  A
C66          H79   1.082       .  S
N67          C68   1.370       .  A
N67         C249   1.480       .  S
C68          H69   1.082       .  S
C70          N71   1.371       .  A
C70          H80   1.079       .  S
N71          C72   1.354       .  A
C72          H78   1.083       .  S
C73          N74   1.347       .  A
C73          H75   1.081       .  S
N74          C76   1.381       .  A
N74         C136   1.474       .  S
C76          H77   1.081       .  S
N81          C86   1.363       .  A
N81          C85   1.362   1_565  A
N81         H113   1.040       .  S
N82          C89   1.362       .  A
N82          C90   1.363       .  A
N83          C88   1.360       .  A
N83          C87   1.362   1_565  A
N83         H114   1.040       .  S
N84          C91   1.361       .  A
N84          C92   1.363       .  A
C85          C93   1.393   1_545  A
C85         C101   1.442       .  A
C86         C102   1.427       .  A
C86          C94   1.382       .  A
C87          C95   1.383       .  A
C87         C104   1.423       .  A
C88         C103   1.437       .  A
C88          C96   1.390       .  A
C89         C101   1.430       .  A
C89          C97   1.383       .  A
C90         C104   1.436       .  A
C90          C98   1.387       .  A
C91          C99   1.390       .  A
C91         C102   1.440       .  A
C92         C100   1.380       .  A
C92         C103   1.423       .  A
C93          C94   1.386       .  A
C93         H105   1.082   1_565  S
C94         H106   1.082       .  S
C95          C96   1.384   1_545  A
C95         H107   1.082       .  S
C96         H108   1.081       .  S
C97          C98   1.380       .  A
C97         H109   1.079       .  S
C98         H110   1.082       .  S
C99         C100   1.378       .  A
C99         H111   1.079       .  S
C100        H112   1.082       .  S
C102        N382   1.475       .  S
C103        N158   1.469       .  S
C104        N359   1.471       .  S
N115        C120   1.363   1_545  A
N115        C119   1.363       .  A
N115        H147   1.042       .  S
N116        C123   1.367       .  A
N116        C124   1.364       .  A
N117        C122   1.366   1_545  A
N117        C121   1.365       .  A
N117        H148   1.042       .  S
N118        C125   1.363       .  A
N118        C126   1.365       .  A
C119        C127   1.391       .  A
C119        C135   1.442       .  A
C120        C136   1.428       .  A
C120        C128   1.383       .  A
C121        C129   1.382       .  A
C121        C138   1.433       .  A
C122        C137   1.451       .  A
C122        C130   1.393       .  A
C123        C135   1.429       .  A
C123        C131   1.380       .  A
C124        C138   1.444       .  A
C124        C132   1.389       .  A
C125        C133   1.385       .  A
C125        C136   1.439       .  A
C126        C134   1.384       .  A
C126        C137   1.432       .  A
C127        C128   1.385   1_545  A
C127        H139   1.082       .  S
C128        H140   1.082       .  S
C129        C130   1.387   1_545  A
C129        H141   1.082       .  S
C130        H142   1.082       .  S
C131        C132   1.379       .  A
C131        H143   1.082       .  S
C132        H144   1.078       .  S
C133        C134   1.381       .  A
C133        H145   1.079       .  S
C134        H146   1.082       .  S
C135        N336   1.477       .  S
C137        N313   1.483       .  S
C138        N222   1.481       .  S
C149        C151   1.566       .  S
C149        C153   1.547       .  S
C149        C152   1.558       .  S
C149        C650   1.510       .  S
C150        C154   1.548       .  S
C150        C156   1.545       .  S
C150        C155   1.561       .  S
C150        C639   1.510       .  S
C151        C159   1.421       .  A
C151        C154   1.379       .  A
C152        C163   1.391       .  A
C152        C155   1.386       .  A
C153        C167   1.382       .  A
C153        C156   1.376       .  A
C154        C157   1.376       .  A
C155        C161   1.397       .  A
C156        C164   1.404       .  A
C157        N158   1.343       .  A
C157        H170   1.079       .  S
N158        C159   1.378       .  A
C159        H160   1.081       .  S
C161        N162   1.372       .  A
C161        H171   1.082       .  S
N162        C163   1.359       .  A
N162        C193   1.471       .  S
C163        H169   1.082       .  S
C164        N165   1.367       .  A
C164        H166   1.080       .  S
N165        C167   1.347       .  A
N165        C251   1.453       .  S
C167        H168   1.081       .  S
N172        C177   1.365       .  A
N172        C176   1.367       .  A
N172        H204   1.025       .  S
N173        C180   1.359       .  A
N173        C181   1.361   1_455  A
N174        C179   1.362       .  A
N174        C178   1.366       .  A
N174        H205   1.027       .  S
N175        C182   1.360       .  A
N175        C183   1.360   1_455  A
C176        C184   1.386       .  A
C176        C192   1.437       .  A
C177        C193   1.441       .  A
C177        C185   1.389       .  A
C178        C186   1.385       .  A
C178        C195   1.432       .  A
C179        C194   1.434       .  A
C179        C187   1.385       .  A
C180        C192   1.426       .  A
C180        C188   1.385       .  A
C181        C195   1.427       .  A
C181        C189   1.385       .  A
C182        C190   1.386       .  A
C182        C193   1.424       .  A
C183        C191   1.381       .  A
C183        C194   1.420       .  A
C184        C185   1.387       .  A
C184        H196   1.082       .  S
C185        H197   1.081       .  S
C186        C187   1.383       .  A
C186        H198   1.082       .  S
C187        H199   1.077       .  S
C188        C189   1.375   1_455  A
C188        H200   1.082       .  S
C189        H201   1.082       .  S
C190        C191   1.373   1_455  A
C190        H202   1.081       .  S
C191        H203   1.079       .  S
C192        N356   1.470       .  S
C194        N310   1.467       .  S
C195        N219   1.473       .  S
C206        C208   1.556       .  S
C206        C210   1.585       .  S
C206        C209   1.547       .  S
C206        C608   1.547       .  S
C207        C211   1.580       .  S
C207        C213   1.541       .  S
C207        C212   1.551       .  S
C207        C625   1.541       .  S
C208        C216   1.385       .  A
C208        C211   1.400       .  A
C209        C220   1.390       .  A
C209        C212   1.376       .  A
C210        C224   1.426       .  A
C210        C213   1.393       .  A
C211        C214   1.416       .  A
C212        C218   1.401       .  A
C213        C221   1.378       .  A
C214        N215   1.376       .  A
C214        H227   1.080       .  S
N215        C216   1.362       .  A
N215        C285   1.478       .  S
C216        H217   1.082       .  S
C218        N219   1.367       .  A
C218        H228   1.082       .  S
N219        C220   1.364       .  A
C220        H226   1.082       .  S
C221        N222   1.351       .  A
C221        H223   1.083       .  S
N222        C224   1.384       .  A
C224        H225   1.081       .  S
N229        C234   1.369       .  A
N229        C233   1.363       .  A
N229        H261   1.042       .  S
N230        C237   1.362       .  A
N230        C238   1.368   1_554  A
N231        C236   1.356       .  A
N231        C235   1.360       .  A
N231        H262   1.039       .  S
N232        C239   1.362       .  A
N232        C240   1.360   1_554  A
C233        C241   1.391       .  A
C233        C249   1.443       .  A
C234        C250   1.433       .  A
C234        C242   1.382       .  A
C235        C243   1.385       .  A
C235        C252   1.423       .  A
C236        C251   1.424       .  A
C236        C244   1.388       .  A
C237        C249   1.441       .  A
C237        C245   1.387       .  A
C238        C252   1.430       .  A
C238        C246   1.379       .  A
C239        C247   1.388       .  A
C239        C250   1.434       .  A
C240        C248   1.380       .  A
C240        C251   1.422       .  A
C241        C242   1.385       .  A
C241        H253   1.080       .  S
C242        H254   1.082       .  S
C243        C244   1.381       .  A
C243        H255   1.082       .  S
C244        H256   1.082       .  S
C245        C246   1.376   1_554  A
C245        H257   1.071       .  S
C246        H258   1.082       .  S
C247        C248   1.378   1_554  A
C247        H259   1.082       .  S
C248        H260   1.081       .  S
C250        N375   1.481       .  S
C252        N306   1.471       .  S
N263        C268   1.354       .  A
N263        C267   1.360       .  A
N263        H295   1.040       .  S
N264        C271   1.362       .  A
N264        C272   1.357   1_554  A
N265        C270   1.366       .  A
N265        C269   1.357       .  A
N265        H296   1.044       .  S
N266        C273   1.357   1_556  A
N266        C274   1.358       .  A
C267        C275   1.385       .  A
C267        C283   1.423       .  A
C268        C284   1.421       .  A
C268        C276   1.387       .  A
C269        C277   1.383       .  A
C269        C286   1.432       .  A
C270        C285   1.423       .  A
C270        C278   1.380       .  A
C271        C283   1.427       .  A
C271        C279   1.382       .  A
C272        C286   1.432       .  A
C272        C280   1.389       .  A
C273        C281   1.383       .  A
C273        C284   1.415       .  A
C274        C282   1.375       .  A
C274        C285   1.419       .  A
C275        C276   1.382       .  A
C275        H287   1.082       .  S
C276        H288   1.083       .  S
C277        C278   1.385       .  A
C277        H289   1.076       .  S
C278        H290   1.082       .  S
C279        C280   1.383   1_554  A
C279        H291   1.082       .  S
C280        H292   1.082       .  S
C281        C282   1.376   1_554  A
C281        H293   1.082       .  S
C282        H294   1.071       .  S
C284        N329   1.447       .  S
C286        N352   1.470       .  S
C297        C299   1.572       .  S
C297        C301   1.573       .  S
C297        C300   1.552       .  S
C297        C583   1.513       .  S
C298        C302   1.559       .  S
C298        C304   1.552       .  S
C298        C303   1.544       .  S
C298        C594   1.503       .  S
C299        C307   1.399       .  A
C299        C302   1.395       .  A
C300        C311   1.389       .  A
C300        C303   1.369       .  A
C301        C315   1.425       .  A
C301        C304   1.371       .  A
C302        C305   1.398       .  A
C303        C309   1.405       .  A
C304        C312   1.384       .  A
C305        N306   1.365       .  A
C305        H318   1.082       .  S
N306        C307   1.367       .  A
C307        H308   1.081       .  S
C309        N310   1.371       .  A
C309        H319   1.082       .  S
N310        C311   1.352       .  A
C311        H317   1.080       .  S
C312        N313   1.348       .  A
C312        H314   1.074       .  S
N313        C315   1.381       .  A
C315        H316   1.082       .  S
C320        C322   1.543       .  S
C320        C324   1.577       .  S
C320        C323   1.548       .  S
C320        C569   1.516       .  S
C321        C325   1.543       .  S
C321        C327   1.549       .  S
C321        C326   1.561       .  S
C321        C552   1.513       .  S
C322        C330   1.380       .  A
C322        C325   1.375       .  A
C323        C334   1.385       .  A
C323        C326   1.388       .  A
C324        C338   1.425       .  A
C324        C327   1.382       .  A
C325        C328   1.401       .  A
C326        C332   1.398       .  A
C327        C335   1.377       .  A
C328        N329   1.363       .  A
C328        H341   1.080       .  S
N329        C330   1.346       .  A
C330        H331   1.081       .  S
C332        N333   1.370       .  A
C332        H342   1.082       .  S
N333        C334   1.357       .  A
C334        H340   1.082       .  S
C335        N336   1.345       .  A
C335        H337   1.078       .  S
N336        C338   1.383       .  A
C338        H339   1.082       .  S
C343        C345   1.535       .  S
C343        C347   1.532       .  S
C343        C346   1.560       .  S
C343        C527   1.494       .  S
C344        C348   1.570       .  S
C344        C350   1.561       .  S
C344        C349   1.568       .  S
C344        C538   1.514       .  S
C345        C353   1.392       .  A
C345        C348   1.377       .  A
C346        C357   1.399       .  A
C346        C349   1.396       .  A
C347        C361   1.381       .  A
C347        C350   1.366       .  A
C348        C351   1.393       .  A
C349        C355   1.398       .  A
C350        C358   1.416       .  A
C351        N352   1.362       .  A
C351        H364   1.076       .  S
N352        C353   1.367       .  A
C353        H354   1.082       .  S
C355        N356   1.367       .  A
C355        H365   1.075       .  S
N356        C357   1.361       .  A
C357        H363   1.082       .  S
C358        N359   1.378       .  A
C358        H360   1.082       .  S
N359        C361   1.348       .  A
C361        H362   1.081       .  S
C366        C368   1.586       .  S
C366        C370   1.541       .  S
C366        C369   1.539       .  S
C366        C510   1.530       .  S
C367        C371   1.546       .  S
C367        C373   1.580       .  S
C367        C372   1.545       .  S
C367        C499   1.531       .  S
C368        C376   1.421       .  A
C368        C371   1.395       .  A
C369        C380   1.395       .  A
C369        C372   1.367       .  A
C370        C384   1.374       .  A
C370        C373   1.397       .  A
C371        C374   1.376       .  A
C372        C378   1.392       .  A
C373        C381   1.426       .  A
C374        N375   1.357       .  A
C374        H387   1.083       .  S
N375        C376   1.382       .  A
C376        H377   1.080       .  S
C378        N379   1.361       .  A
C378        H388   1.083       .  S
N379        C380   1.363       .  A
C380        H386   1.080       .  S
C381        N382   1.381       .  A
C381        H383   1.080       .  S
N382        C384   1.345       .  A
C384        H385   1.083       .  S
C389        N407   1.362   1_554  A
C389        C426   1.442       .  S
C389        C496   1.474       .  S
N390        N407   1.331       .  A
N390        N412   1.310       .  A
N390       Co427   2.122   1_455  S
C391        N416   1.348       .  A
C391        H436   1.081       .  S
C391        C429   1.480   1_554  S
H392        C433   1.079       .  S
C393        N417   1.334       .  A
C393        H422   1.082       .  S
C393        C397   1.479       .  S
Co394       N412   2.026       .  S
Co394       N402   2.035   1_556  S
Co394       N434   2.037       .  S
Co394       N410   2.003   1_566  S
Co394      Cl438   2.463   1_455  S
N395        C433   1.323       .  A
N395        N402   1.312   1_545  A
N395       Co396   2.084   1_455  S
Co396       N399   2.063       .  S
Co396       N416   2.075   1_655  S
Co396       N403   2.110       .  S
Co396      Cl438   2.370   1_544  S
C397        N435   1.349   1_565  A
C397        C555   1.477   1_565  S
N398        N405   1.315       .  A
N398        N428   1.311   1_556  A
N398       Co431   2.052   1_556  S
N399        N417   1.307   1_545  A
N399        N435   1.314       .  A
N400        C429   1.334       .  A
N400        N410   1.301   1_556  A
H401        C426   1.082       .  S
N402        N423   1.318       .  A
N403        N421   1.316       .  A
N403        N408   1.332       .  A
C404        N408   1.359   1_556  A
C404        C432   1.443       .  S
C404        C611   1.483       .  S
N405        C420   1.336       .  A
N405       Co427   2.051       .  S
C406        N434   1.333   1_545  A
C406        H440   1.079       .  S
C406        C409   1.474   1_545  S
C409        N430   1.350       .  A
C409        C636   1.479       .  S
N410        N416   1.306       .  A
N411        C437   1.327       .  A
N411        N413   1.310       .  A
N411       Co427   2.078       .  S
N412        C426   1.325   1_556  A
N413        N441   1.316   1_565  A
N413       Co431   2.024   1_556  S
H414        C437   1.078       .  S
H415        C432   1.080       .  S
N417       Co431   2.038       .  S
N418        N430   1.315       .  A
N418        N434   1.309       .  A
N418       Co427   2.066   1_455  S
C419        N423   1.350       .  A
C419        C433   1.472   1_565  S
C419        C709   1.475   1_565  S
C420        H424   1.080       .  S
C420        C439   1.451   1_556  S
N421        C432   1.334   1_554  A
N421       Co431   2.064   1_545  S
C425        N441   1.343       .  A
C425        C437   1.478   1_545  S
C425        C597   1.470   1_545  S
Co427      Cl438   2.383       .  S
N428        C439   1.343       .  A
C429        C541   1.463       .  S
Co431      Cl438   2.465   1_554  S
C439        C681   1.446       .  S
C442        N460   1.362       .  A
C442        C479   1.436       .  S
C442        C566   1.472       .  S
N443        N460   1.316       .  A
N443        N465   1.303       .  A
N443       Co480   2.064       .  S
C444        N469   1.314       .  A
C444        H489   1.083       .  S
C444        C482   1.444       .  S
H445        C486   1.081       .  S
C446        N470   1.348       .  A
C446        H475   1.076       .  S
C446        C450   1.469       .  S
Co447       N465   2.020       .  S
Co447       N455   2.009       .  S
Co447       N487   2.102       .  S
Co447       N463   2.028       .  S
Co447      Cl491   2.356       .  S
N448        C486   1.349       .  A
N448        N455   1.306       .  A
N448       Co449   2.099       .  S
Co449       N452   2.038       .  S
Co449       N469   2.008       .  S
Co449       N456   2.039       .  S
Co449      Cl491   2.454       .  S
C450        N488   1.338       .  A
C450        C513   1.485       .  S
N451        N458   1.316       .  A
N451        N481   1.321       .  A
N451       Co484   2.057       .  S
N452        N470   1.318       .  A
N452        N488   1.317       .  A
N453        C482   1.339       .  A
N453        N463   1.317       .  A
H454        C479   1.080       .  S
N455        N476   1.303       .  A
N456        N474   1.304       .  A
N456        N461   1.316       .  A
C457        N461   1.354       .  A
C457        C485   1.464       .  S
C457        C653   1.480       .  S
N458        C473   1.324       .  A
N458       Co480   2.050       .  S
C459        N487   1.349       .  A
C459        H493   1.077       .  S
C459        C462   1.462       .  S
C462        N483   1.344       .  A
C462        C622   1.488       .  S
N463        N469   1.310       .  A
N464        C490   1.345       .  A
N464        N466   1.309       .  A
N464       Co480   2.073       .  S
N465        C479   1.330       .  A
N466        N494   1.305       .  A
N466       Co484   2.031       .  S
H467        C490   1.082       .  S
H468        C485   1.082       .  S
N470       Co484   2.120       .  S
N471        N483   1.320       .  A
N471        N487   1.318       .  A
N471       Co480   2.064       .  S
C472        N476   1.333       .  A
C472        C486   1.483       .  S
C472        C695   1.459       .  S
C473        H477   1.082       .  S
C473        C492   1.462       .  S
N474        C485   1.335       .  A
N474       Co484   2.056       .  S
C478        N494   1.341       .  A
C478        C490   1.471       .  S
C478        C580   1.452       .  S
Co480      Cl491   2.462       .  S
N481        C492   1.343       .  A
C482        C524   1.424       .  S
Co484      Cl491   2.362       .  S
C492        C667   1.441       .  S
C495        C496   1.417       .  A
C495        C500   1.412       .  A
C495        H502   1.080       .  S
C496        C497   1.396       .  A
C497        C498   1.390       .  A
C497        N504   1.430       .  S
C498        C499   1.419       .  A
C498        H503   1.084       .  S
C499        C500   1.405       .  A
C500        N501   1.429       .  S
N501        O505   1.260       .  A
N501        O506   1.262       .  A
N504        O508   1.262       .  A
N504        O507   1.261   1_554  A
C509        C510   1.395       .  A
C509        C514   1.401       .  A
C509        H516   1.078       .  S
C510        C511   1.439       .  A
C511        C512   1.394       .  A
C511        N518   1.432       .  S
C512        C513   1.389       .  A
C512        H517   1.085       .  S
C513        C514   1.410       .  A
C514        N515   1.409       .  S
N515        O519   1.256       .  A
N515        O520   1.260       .  A
N518        O522   1.261       .  A
N518        O521   1.263       .  A
C523        C524   1.380       .  A
C523        C528   1.386       .  A
C523        H530   1.086       .  S
C524        C525   1.413       .  A
C525        C526   1.378       .  A
C525        N532   1.435       .  S
C526        C527   1.401       .  A
C526        H531   1.076       .  S
C527        C528   1.429       .  A
C528        N529   1.425       .  S
N529        O533   1.262       .  A
N529        O534   1.262       .  A
N532        O536   1.260       .  A
N532        O535   1.263       .  A
C537        C538   1.394       .  A
C537        C542   1.378       .  A
C537        H544   1.085       .  S
C538        C539   1.415       .  A
C539        C540   1.406       .  A
C539        N546   1.434       .  S
C540        C541   1.404       .  A
C540        H545   1.083       .  S
C541        C542   1.415       .  A
C542        N543   1.434       .  S
N543        O547   1.262       .  A
N543        O548   1.262       .  A
N546        O550   1.263       .  A
N546        O549   1.262       .  A
C551        C552   1.413       .  A
C551        C556   1.391       .  A
C551        H558   1.080       .  S
C552        C553   1.434       .  A
C553        C554   1.393       .  A
C553        N560   1.427       .  S
C554        C555   1.393       .  A
C554        H559   1.084   1_545  S
C555        C556   1.405       .  A
C556        N557   1.429       .  S
N557        O561   1.261       .  A
N557        O562   1.262       .  A
N560        O564   1.262       .  A
N560        O563   1.263       .  A
C565        C566   1.370       .  A
C565        C570   1.380       .  A
C565        H572   1.087       .  S
C566        C567   1.427       .  A
C567        C568   1.394       .  A
C567        N574   1.430       .  S
C568        C569   1.399       .  A
C568        H573   1.082       .  S
C569        C570   1.438       .  A
C570        N571   1.416       .  S
N571        O575   1.262       .  A
N571        O576   1.262       .  A
N574        O578   1.262       .  A
N574        O577   1.262       .  A
C579        C580   1.398       .  A
C579        C584   1.397       .  A
C579        H586   1.086       .  S
C580        C581   1.404       .  A
C581        C582   1.390       .  A
C581        N588   1.426       .  S
C582        C583   1.409       .  A
C582        H587   1.078       .  S
C583        C584   1.431       .  A
C584        N585   1.430       .  S
N585        O589   1.263       .  A
N585        O590   1.261       .  A
N588        O592   1.262       .  A
N588        O591   1.260       .  A
C593        C594   1.409       .  A
C593        C598   1.392       .  A
C593        H600   1.077       .  S
C594        C595   1.430       .  A
C595        C596   1.392       .  A
C595        N602   1.428       .  S
C596        C597   1.389       .  A
C596        H601   1.085       .  S
C597        C598   1.409       .  A
C598        N599   1.430   1_565  S
N599        O603   1.262       .  A
N599        O604   1.262       .  A
N602        O606   1.261       .  A
N602        O605   1.262       .  A
C607        C608   1.406       .  A
C607        C612   1.421       .  A
C607        H614   1.080       .  S
C608        C609   1.433       .  A
C609        C610   1.396       .  A
C609        N616   1.430       .  S
C610        C611   1.386       .  A
C610        H615   1.085       .  S
C611        C612   1.422       .  A
C612        N613   1.442       .  S
N613        O617   1.263       .  A
N613        O618   1.263       .  A
N616        O620   1.255       .  A
N616        O619   1.262       .  A
C621        C622   1.391       .  A
C621        C626   1.395       .  A
C621        H628   1.085       .  S
C622        C623   1.415       .  A
C623        C624   1.408       .  A
C623        N630   1.423       .  S
C624        C625   1.404       .  A
C624        H629   1.075       .  S
C625        C626   1.436       .  A
C626        N627   1.432       .  S
N627        O631   1.263       .  A
N627        O632   1.261       .  A
N630        O634   1.261       .  A
N630        O633   1.262       .  A
C635        C636   1.395       .  A
C635        C640   1.399       .  A
C635        H642   1.084   1_565  S
C636        C637   1.402       .  A
C637        C638   1.392       .  A
C637        N644   1.429       .  S
C638        C639   1.416       .  A
C638        H643   1.081       .  S
C639        C640   1.435       .  A
C640        N641   1.428       .  S
N641        O645   1.262       .  A
N641        O646   1.262       .  A
N644        O648   1.261       .  A
N644        O647   1.262       .  A
C649        C650   1.420       .  A
C649        C654   1.385       .  A
C649        H656   1.072       .  S
C650        C651   1.416       .  A
C651        C652   1.390       .  A
C651        N658   1.430       .  S
C652        C653   1.414       .  A
C652        H657   1.081       .  S
C653        C654   1.396       .  A
C654        N655   1.430       .  S
N655        O659   1.262       .  A
N655        O660   1.262       .  A
N658        O662   1.261       .  A
N658        O661   1.262       .  A
C663        C664   1.414       .  A
C663        C668   1.382       .  A
C663        H670   1.073       .  S
C664        C665   1.425       .  A
C665        C666   1.398       .  A
C665        N672   1.426       .  S
C666        C667   1.394       .  A
C666        H671   1.082       .  S
C667        C668   1.393       .  A
C668        N669   1.431       .  S
N669        O673   1.262       .  A
N669        O674   1.263       .  A
N672        O676   1.261       .  A
N672        O675   1.261       .  A
C677        C678   1.395       .  A
C677        C682   1.399       .  A
C677        H684   1.080       .  S
C678        C679   1.437       .  A
C679        C680   1.383       .  A
C679        N686   1.437       .  S
C680        C681   1.380       .  A
C680        H685   1.085       .  S
C681        C682   1.418       .  A
C682        N683   1.443       .  S
N683        O687   1.263       .  A
N683        O688   1.261       .  A
N686        O690   1.262       .  A
N686        O689   1.259       .  A
C691        C692   1.416       .  A
C691        C696   1.402       .  A
C691        H698   1.075       .  S
C692        C693   1.423       .  A
C693        C694   1.399       .  A
C693        N700   1.425       .  S
C694        C695   1.396       .  A
C694        H699   1.081       .  S
C695        C696   1.414       .  A
C696        N697   1.447       .  S
N697        O701   1.263       .  A
N697        O702   1.262       .  A
N700        O704   1.262       .  A
N700        O703   1.260       .  A
C705        C706   1.403       .  A
C705        C710   1.393       .  A
C705        H712   1.075       .  S
C706        C707   1.428       .  A
C707        C708   1.385       .  A
C707        N714   1.433       .  S
C708        C709   1.395       .  A
C708        H713   1.084       .  S
C709        C710   1.414       .  A
C710        N711   1.429   1_545  S
N711        O715   1.262       .  A
N711        O716   1.262       .  A
N714        O718   1.262       .  A
N714        O717   1.261       .  A
