geometry optimzed in LAMMPS
_audit_creation_date              2020-11-30 
_audit_creation_method            'lammps2cif' 
_symmetry_space_group_name_H-M    'P1' 
_symmetry_Int_Tables_number       1 
_symmetry_cell_setting            triclinic 
loop_ 
_symmetry_equiv_pos_as_xyz 
  x,y,z 
_cell_length_a                    37.980594099892514 
_cell_length_b                    37.568865740405606 
_cell_length_c                    36.723896592851546 
_cell_angle_alpha                 89.67987101994821 
_cell_angle_beta                  90.2536390708241 
_cell_angle_gamma                 89.99440246263076 
loop_ 
_atom_site_label 
_atom_site_type_symbol 
_atom_site_fract_x 
_atom_site_fract_y 
_atom_site_fract_z 
_atom_site_charge 
C1          C  0.43937152  0.30987290  0.37989604     0.03100
C2          C  0.40631057  0.29738678  0.36844399    -0.13050
C3          C  0.38919438  0.31252946  0.33831342     0.00600
C4          C  0.40399065  0.34228541  0.32112886    -0.11580
C5          C  0.43623734  0.35614467  0.33315369     0.03090
C6          C  0.45427765  0.33922253  0.36181227    -0.11000
H7          H  0.39437465  0.27513881  0.38253082     0.08690
H8          H  0.39036906  0.35449583  0.29833506     0.06220
H9          H  0.48032856  0.34838459  0.36928993     0.06060
C10         C  0.36526269  0.38193762  0.10014737     0.03100
C11         C  0.39682443  0.39659169  0.11381882    -0.13050
C12         C  0.41566549  0.37944490  0.14180090     0.00600
C13         C  0.40217365  0.34815207  0.15723929    -0.11580
C14         C  0.37104188  0.33295710  0.14395094     0.03090
C15         C  0.35340419  0.34917786  0.11457744    -0.11000
H16         H  0.40508666  0.42287803  0.10505889     0.08690
H17         H  0.41462632  0.33694924  0.18134676     0.06220
H18         H  0.32856711  0.33811638  0.10542511     0.06060
C19         C  0.18189967  0.38092721  0.38962320     0.03100
C20         C  0.19380507  0.34778954  0.37640387    -0.13050
C21         C  0.17733863  0.33161819  0.34645724     0.00600
C22         C  0.14694516  0.34708710  0.33144694    -0.11580
C23         C  0.13285846  0.37837436  0.34607580     0.03090
C24         C  0.15079033  0.39552828  0.37450560    -0.11000
H25         H  0.21780194  0.33609177  0.38709839     0.08690
H26         H  0.13532665  0.33582432  0.30706766     0.06220
H27         H  0.14223565  0.42192354  0.38212223     0.06060
C28         C  0.43455019  0.14025566  0.10474796     0.03100
C29         C  0.40352200  0.15334344  0.11970900    -0.13050
C30         C  0.38746261  0.13611654  0.14930988     0.00600
C31         C  0.40276725  0.10502372  0.16380976    -0.11580
C32         C  0.43408347  0.09142717  0.14901841     0.03090
C33         C  0.44964652  0.10918268  0.11935116    -0.11000
H34         H  0.39322036  0.17821301  0.10923732     0.08690
H35         H  0.39075901  0.09191610  0.18698773     0.06220
H36         H  0.47444627  0.10002287  0.10844452     0.06060
C37         C  0.45121728  0.38811508  0.31582459     0.42430
N38         N  0.98321348  0.43411697  0.30691548     0.01320
C39         C  0.48349786  0.04220171  0.15296483    -0.06560
H40         H  0.98930709  0.41052998  0.12302705     0.06810
C41         C  0.10905415  0.40867938  0.20475811    -0.06910
Co42       Co  0.45995073  0.47529161  0.24060538     0.74180
N43         N  0.98559689  0.43803592  0.17453561    -0.26090
Co44       Co  0.02646424  0.47558652  0.17674581     0.74070
C45         C  0.09645246  0.38990569  0.17257922     0.42530
N46         N  0.08644169  0.43703884  0.28783600     0.00930
N47         N  0.06444914  0.43594149  0.18088462     0.01040
N48         N  0.43993182  0.04164822  0.19491938    -0.46930
H49         H  0.41652633  0.40089744  0.26569383     0.06800
N50         N  0.46135069  0.43764127  0.20008241     0.01330
N51         N  0.06707873  0.01355603  0.17913596     0.01070
C52         C  0.10585033  0.05328370  0.16613533     0.42670
N53         N  0.06214603  0.43657870  0.31331275    -0.25540
C54         C  0.43315680  0.03641253  0.28767514    -0.06460
N55         N  0.97902662  0.40645522  0.32890270    -0.46650
N56         N  0.07717624  0.03597956  0.15307776    -0.46870
C57         C  0.44083746  0.05005965  0.32370232     0.42440
N58         N  0.46258630  0.01528042  0.20047758     0.01310
N59         N  0.05840587  0.01385167  0.31233867    -0.25560
N60         N  0.45975191  0.43513239  0.28024668    -0.26060
N61         N  0.08390131  0.01469038  0.28801924     0.00950
H62         H  0.04483259  0.04770875  0.35729259     0.06840
H63         H  0.13643329  0.04260455  0.21899668     0.06880
N64         N  0.98816701  0.01506602  0.17621105    -0.26110
N65         N  0.08764806  0.43664395  0.20777738    -0.25720
N66         N  0.97992870  0.01132016  0.30979141     0.01320
C67         C  0.44299070  0.39896548  0.16187106     0.42710
C68         C  0.07203342  0.41271748  0.33895663    -0.06970
N69         N  0.08868277  0.01396145  0.20731464    -0.25720
H70         H  0.13044505  0.40237237  0.22318194     0.06860
N71         N  0.43551756  0.41508283  0.19343067    -0.46940
H72         H  0.05868864  0.40786762  0.36446078     0.06850
C73         C  0.09304833  0.06034630  0.32142502     0.42550
C74         C  0.43826089  0.40710001  0.28366524    -0.06470
Co75       Co  0.02083733  0.47383833  0.31151938     0.73820
N76         N  0.11258917  0.41465866  0.29434148    -0.46660
C77         C  0.45145463  0.05981978  0.16536270     0.42820
N78         N  0.46970241  0.03277141  0.33637248    -0.46650
Co79       Co  0.08721231  0.47572999  0.24774355     0.73890
C80         C  0.11360752  0.03843542  0.20181996    -0.06980
C81         C  0.47594990  0.41468092  0.14860163    -0.06540
N82         N  0.45829977  0.01240557  0.28162737    -0.26070
N83         N  0.06883334  0.40840539  0.15898522    -0.46830
H84         H  0.00017975  0.04812925  0.12994319     0.06820
C85         C  0.06194216  0.04163622  0.33471131    -0.06950
Cl86       Cl  0.02359059  0.47519362  0.24413795    -0.49950
C87         C  0.10524826  0.39762422  0.32565660     0.42580
H88         H  0.41026223  0.04090364  0.27063228     0.06790
N89         N  0.10533507  0.04207473  0.29255836    -0.46660
C90         C  0.11357792  0.31315776  0.10779284     0.03100
C91         C  0.09622110  0.34079812  0.12671656    -0.13050
C92         C  0.11287191  0.35880698  0.15530031     0.00600
C93         C  0.14556629  0.34696962  0.16771865    -0.11580
C94         C  0.16278799  0.31902749  0.15054603     0.03090
C95         C  0.14814288  0.30432414  0.11894352    -0.11000
H96         H  0.06948410  0.34827979  0.12009863     0.08690
H97         H  0.15772188  0.35957953  0.19088504     0.06220
H98         H  0.16388262  0.28574546  0.10377257     0.06060
C99         C  0.36663964  0.06611754  0.38960204     0.03100
C100        C  0.39752346  0.05165080  0.37441853    -0.13050
C101        C  0.41475285  0.06908190  0.34565465     0.00600
C102        C  0.40071590  0.10069315  0.33151899    -0.11580
C103        C  0.37022948  0.11558069  0.34619067     0.03090
C104        C  0.35398802  0.09898782  0.37603236    -0.11000
H105        H  0.40620130  0.02527386  0.38248016     0.08690
H106        H  0.41199467  0.11226052  0.30707300     0.06220
H107        H  0.32944942  0.10973708  0.38615142     0.06060
C108        C  0.11049506  0.14121918  0.38025882     0.03100
C109        C  0.09377588  0.11146881  0.36488209    -0.13050
C110        C  0.10960975  0.09260987  0.33641610     0.00600
C111        C  0.14146267  0.10483010  0.32191219    -0.11580
C112        C  0.15792606  0.13513314  0.33603264     0.03090
C113        C  0.14276847  0.15268314  0.36572689    -0.11000
H114        H  0.06822369  0.10337946  0.37485089     0.08690
H115        H  0.15332324  0.09071717  0.29948249     0.06220
H116        H  0.15569549  0.17583045  0.37709089     0.06060
C117        C  0.18095229  0.06844942  0.10094001     0.03100
C118        C  0.14979046  0.05439609  0.11610458    -0.13050
C119        C  0.13230495  0.07223505  0.14421906     0.00600
C120        C  0.14626661  0.10413802  0.15754382    -0.11580
C121        C  0.17624667  0.11937012  0.14181043     0.03090
C122        C  0.19246397  0.10234934  0.11237623    -0.11000
H123        H  0.14109549  0.02789631  0.10882949     0.08690
H124        H  0.13509527  0.11595030  0.18177803     0.06220
H125        H  0.21610158  0.11391091  0.10094877     0.06060
C126        C  0.35063826  0.14162880  0.32395953     0.42430
N127        N  0.31100658  0.18022032  0.31025307     0.01320
C128        C  0.21223568  0.17929872  0.14981755    -0.06560
H129        H  0.34363681  0.20206004  0.13095539     0.06810
C130        C  0.33793017  0.31492809  0.20210572    -0.06910
Co131      Co  0.27371455  0.15999113  0.24155006     0.74180
N132        N  0.31206413  0.18890758  0.17724126    -0.26090
Co133      Co  0.27413332  0.22811864  0.17753043     0.74070
C134        C  0.35259898  0.30647409  0.16664145     0.42530
N135        N  0.31292281  0.28571184  0.28877807     0.00930
N136        N  0.31252365  0.26821378  0.18004876     0.01040
N137        N  0.21231238  0.13738992  0.19406031    -0.46930
H138        H  0.34049286  0.11019999  0.27153947     0.06800
N139        N  0.31256126  0.16269079  0.20129000     0.01330
N140        N  0.23629871  0.26759086  0.18010390     0.01070
C141        C  0.19490664  0.30404915  0.16711551     0.42670
N142        N  0.31236312  0.25973421  0.31309729    -0.25540
C143        C  0.20784312  0.13675043  0.28624301    -0.06460
N144        N  0.33332068  0.17054042  0.33646038    -0.46650
N145        N  0.21137180  0.27432891  0.15573948    -0.46870
C146        C  0.19032045  0.14909820  0.31921851     0.42440
N147        N  0.23557449  0.16264797  0.20091709     0.01310
N148        N  0.23614715  0.26228723  0.31318963    -0.25560
N149        N  0.31145513  0.15814309  0.28244055    -0.26060
N150        N  0.23611761  0.28727055  0.28779945     0.00950
H151        H  0.20772294  0.25698202  0.36385655     0.06840
H152        H  0.20662474  0.33761188  0.21835397     0.06880
N153        N  0.23609928  0.18771185  0.17561716    -0.26110
N154        N  0.31317175  0.29026820  0.20786492    -0.25720
N155        N  0.23461424  0.18259366  0.30835931     0.01320
C156        C  0.35591870  0.15216347  0.16579400     0.42710
C157        C  0.33907018  0.26414397  0.33647439    -0.06970
N158        N  0.23702222  0.29092051  0.20682638    -0.25720
H159        H  0.34248805  0.33807927  0.21886355     0.06860
N160        N  0.33858925  0.13988152  0.19544668    -0.46940
H161        H  0.34495139  0.24693029  0.35939043     0.06850
C162        C  0.19649229  0.30448209  0.32545701     0.42550
C163        C  0.33594184  0.13325163  0.28840337    -0.06470
Co164      Co  0.27348675  0.22112379  0.31203502     0.73820
N165        N  0.33913882  0.30827485  0.29416752    -0.46660
C166        C  0.19592874  0.14620072  0.16269545     0.42820
N167        N  0.20835763  0.17761564  0.33136822    -0.46650
Co168      Co  0.27483414  0.28905529  0.24792504     0.73890
C169        C  0.21174185  0.31499367  0.20110622    -0.06980
C170        C  0.33830401  0.18462257  0.15376962    -0.06540
N171        N  0.23493295  0.15912905  0.28172449    -0.26070
N172        N  0.33490225  0.27774141  0.15405674    -0.46830
H173        H  0.20803779  0.19356547  0.12450750     0.06820
C174        C  0.21225898  0.27113460  0.33858380    -0.06950
Cl175      Cl  0.27400837  0.22456770  0.24476234    -0.49950
C176        C  0.35669816  0.29645175  0.32387969     0.42580
H177        H  0.20150155  0.11468016  0.26862892     0.06790
N178        N  0.21323032  0.31297259  0.29431149    -0.46660
C179        C  0.27428830  0.47366323  0.47472200     0.00540
C180        C  0.27294042  0.47507551  0.51204677     0.00530
C181        C  0.02378663  0.23027496  0.01301312     0.00540
C182        C  0.02495292  0.22800753  0.97531777     0.00530
C183        C  0.02709089  0.22740769  0.47793956     0.00540
C184        C  0.02741283  0.22842797  0.51530430     0.00530
C185        C  0.26938145  0.47262341  0.01619275     0.00540
C186        C  0.26956127  0.47309608  0.97884248     0.00530
C187        C  0.35639977  0.39556718  0.87702346     0.03100
C188        C  0.34183400  0.36571540  0.85961748    -0.13050
C189        C  0.36056731  0.34772130  0.83252919     0.00600
C190        C  0.39324407  0.36093037  0.82118356    -0.11580
C191        C  0.40806827  0.39072812  0.83800750     0.03090
C192        C  0.39034679  0.40672421  0.86705872    -0.11000
H193        H  0.31566402  0.35667066  0.86669543     0.08690
H194        H  0.40737664  0.34793211  0.79946518     0.06220
H195        H  0.40273559  0.42830684  0.88160308     0.06060
C196        C  0.43264449  0.13246536  0.89223543     0.03100
C197        C  0.40046382  0.14700845  0.87934200    -0.13050
C198        C  0.38266687  0.13165066  0.84963444     0.00600
C199        C  0.39624420  0.10067254  0.83402646    -0.11580
C200        C  0.42740927  0.08532254  0.84708801     0.03090
C201        C  0.44543345  0.10112513  0.87624008    -0.11000
H202        H  0.39159094  0.17247613  0.88956159     0.08690
H203        H  0.38414205  0.09018484  0.80951229     0.06220
H204        H  0.47157288  0.09164028  0.88307688     0.06060
C205        C  0.18872792  0.05838664  0.87689592     0.03100
C206        C  0.15544678  0.04843107  0.86371268    -0.13050
C207        C  0.13934333  0.06746034  0.83524989     0.00600
C208        C  0.15555300  0.09819677  0.82165469    -0.11580
C209        C  0.18792734  0.10956495  0.83584601     0.03090
C210        C  0.20470795  0.08920889  0.86289059    -0.11000
H211        H  0.14233854  0.02539161  0.87518613     0.08690
H212        H  0.14294213  0.11343827  0.80017025     0.06220
H213        H  0.23052800  0.09690925  0.87259717     0.06060
C214        C  0.11666073  0.32419968  0.89128186     0.03100
C215        C  0.10836529  0.35920957  0.87945928    -0.13050
C216        C  0.12306769  0.37352837  0.84758995     0.00600
C217        C  0.15146849  0.35624499  0.83129600    -0.11580
C218        C  0.16470387  0.32461665  0.84616580     0.03090
C219        C  0.14634070  0.30794423  0.87465570    -0.11000
H220        H  0.08899512  0.37509665  0.89274254     0.08690
H221        H  0.16239806  0.36669514  0.80618504     0.06220
H222        H  0.15418342  0.28107482  0.88125104     0.06060
C223        C  0.11805535  0.13412418  0.60035336     0.03100
C224        C  0.14830903  0.14873010  0.61686186    -0.13050
C225        C  0.16490799  0.13130019  0.64611406     0.00600
C226        C  0.15047487  0.09965992  0.65980330    -0.11580
C227        C  0.12081019  0.08436877  0.64339843     0.03090
C228        C  0.10555680  0.10089196  0.61285754    -0.11000
H229        H  0.15698613  0.17523743  0.60938275     0.08690
H230        H  0.16099800  0.08813305  0.68471541     0.06220
H231        H  0.08166395  0.08977905  0.60136357     0.06060
C232        C  0.35693724  0.06151635  0.60943687     0.03100
C233        C  0.38992848  0.04990174  0.62182251    -0.13050
C234        C  0.40642498  0.06594511  0.65174105     0.00600
C235        C  0.39075660  0.09574528  0.66789319    -0.11580
C236        C  0.35826883  0.10858401  0.65498228     0.03090
C237        C  0.34099171  0.09053414  0.62661153    -0.11000
H238        H  0.40214142  0.02748451  0.60854180     0.08690
H239        H  0.40370563  0.10877894  0.69053432     0.06220
H240        H  0.31493482  0.09866747  0.61795075     0.06060
C241        C  0.34604649  0.31509123  0.81634204     0.42430
N242        N  0.31455631  0.26855413  0.80867133     0.01320
C243        C  0.31129076  0.15963193  0.65738583    -0.06560
H244        H  0.30912701  0.29133485  0.62395780     0.06810
C245        C  0.18842953  0.29474143  0.70501403    -0.06910
Co246      Co  0.33752427  0.22702465  0.74320255     0.74180
N247        N  0.31227551  0.26450003  0.67622953    -0.26090
Co248      Co  0.27080784  0.22761423  0.67868389     0.74070
C249        C  0.20092840  0.31340652  0.67266490     0.42530
N250        N  0.21121035  0.26619511  0.78867809     0.00930
N251        N  0.23317300  0.26761553  0.68194369     0.01040
N252        N  0.35509426  0.15917013  0.69952605    -0.46930
H253        H  0.38062878  0.30195574  0.76672091     0.06800
N254        N  0.33664770  0.26454258  0.70188640     0.01330
N255        N  0.22990213  0.19008855  0.68095566     0.01070
C256        C  0.19118233  0.15034706  0.66811260     0.42670
N257        N  0.23542676  0.26633680  0.81448005    -0.25540
C258        C  0.36453732  0.16610297  0.79162465    -0.06460
N259        N  0.31844373  0.29669735  0.82979803    -0.46650
N260        N  0.21986169  0.16760626  0.65511412    -0.46870
C261        C  0.35708538  0.15253617  0.82787651     0.42440
N262        N  0.33386919  0.18684388  0.70380661     0.01310
N263        N  0.23889082  0.18907131  0.81390742    -0.25560
N264        N  0.33797867  0.26736089  0.78217491    -0.26060
N265        N  0.21336278  0.18877263  0.78935520     0.00950
H266        H  0.25248752  0.15407175  0.85843764     0.06840
H267        H  0.16056488  0.16107616  0.72054665     0.06880
N268        N  0.30822135  0.18759970  0.67938390    -0.26110
N269        N  0.20995457  0.26691601  0.70861385    -0.25720
N270        N  0.31772624  0.19117127  0.81298929     0.01320
C271        C  0.35590711  0.30219044  0.66270622     0.42710
C272        C  0.22535619  0.28985909  0.84002031    -0.06970
N273        N  0.20831995  0.18972352  0.70891501    -0.25720
H274        H  0.16700779  0.30097135  0.72315931     0.06860
N275        N  0.36305853  0.28631066  0.69474530    -0.46940
H276        H  0.23853365  0.29438048  0.86574709     0.06850
C277        C  0.20416129  0.14245556  0.82200620     0.42550
C278        C  0.35918179  0.29566360  0.78490037    -0.06470
Co279      Co  0.27673679  0.22889004  0.81350597     0.73820
N280        N  0.18495382  0.28839644  0.79485955    -0.46660
C281        C  0.34226290  0.14072554  0.67082323     0.42820
N282        N  0.32810169  0.16978768  0.84001916    -0.46650
Co283      Co  0.21022274  0.22781389  0.74891457     0.73890
C284        C  0.18336336  0.16527134  0.70350044    -0.06980
C285        C  0.32242225  0.28726499  0.64974955    -0.06540
N286        N  0.33927332  0.19000864  0.78497301    -0.26070
N287        N  0.22871351  0.29508413  0.65961368    -0.46830
H288        H  0.29398497  0.15372810  0.63476753     0.06820
C289        C  0.23530491  0.16078704  0.83587696    -0.06950
Cl290      Cl  0.27385464  0.22784875  0.74609083    -0.49950
C291        C  0.19211421  0.30497177  0.82630941     0.42580
H292        H  0.38734176  0.16152844  0.77473578     0.06790
N293        N  0.19191748  0.16133457  0.79329281    -0.46660
C294        C  0.43335261  0.31932845  0.60046888     0.03100
C295        C  0.40187257  0.30462190  0.61445551    -0.13050
C296        C  0.38335373  0.32158538  0.64249913     0.00600
C297        C  0.39700377  0.35280094  0.65768082    -0.11580
C298        C  0.42786951  0.36820756  0.64413104     0.03090
C299        C  0.44511133  0.35224394  0.61463940    -0.11000
H300        H  0.39347808  0.27830717  0.60630456     0.08690
H301        H  0.38479595  0.36388563  0.68174115     0.06220
H302        H  0.46946216  0.36390667  0.60505333     0.06060
C303        C  0.18607513  0.39296884  0.61049531     0.03100
C304        C  0.20215539  0.36340793  0.62740841    -0.13050
C305        C  0.18531246  0.34540239  0.65589701     0.00600
C306        C  0.15323933  0.35824751  0.66888905    -0.11580
C307        C  0.13762048  0.38854015  0.65371166     0.03090
C308        C  0.15356501  0.40525758  0.62382792    -0.11000
H309        H  0.22793267  0.35465988  0.61871122     0.08690
H310        H  0.14034865  0.34463897  0.69105040     0.06220
H311        H  0.14106668  0.42827984  0.61145884     0.06060
C312        C  0.44567796  0.05947564  0.82402626     0.42430
N313        N  0.48572801  0.02168588  0.81017142     0.01320
C314        C  0.08424454  0.02483457  0.65087999    -0.06560
H315        H  0.45110131  0.00095491  0.63167443     0.06810
C316        C  0.46111649  0.38670043  0.70238138    -0.06910
Co317      Co  0.02235784  0.04315415  0.74170448     0.74180
N318        N  0.48385313  0.01406939  0.67740946    -0.26090
Co319      Co  0.02266724  0.47539166  0.67796700     0.74070
C320        C  0.44635164  0.39483424  0.66663924     0.42530
N321        N  0.48526561  0.41653204  0.78955171     0.00930
N322        N  0.48517147  0.43431834  0.68036342     0.01040
N323        N  0.08376633  0.06651560  0.69488795    -0.46930
H324        H  0.45503226  0.09186903  0.77176479     0.06800
N325        N  0.48341425  0.04005658  0.70144965     0.01330
N326        N  0.06156331  0.43686815  0.68119886     0.01070
C327        C  0.10541176  0.40304408  0.67018489     0.42670
N328        N  0.48572806  0.44246276  0.81363244    -0.25540
C329        C  0.08829942  0.06696218  0.78630237    -0.06460
N330        N  0.46352445  0.03066355  0.83636156    -0.46650
N331        N  0.08751271  0.43172613  0.65785611    -0.46870
C332        C  0.10624944  0.05438801  0.81921965     0.42440
N333        N  0.06032542  0.04130050  0.70132623     0.01310
N334        N  0.06204764  0.44134548  0.81404288    -0.25560
N335        N  0.48476816  0.04411731  0.78242894    -0.26060
N336        N  0.06237816  0.41643578  0.78890478     0.00950
H337        H  0.09123519  0.44758922  0.86433280     0.06840
H338        H  0.09448951  0.36883050  0.72142942     0.06880
N339        N  0.06003506  0.01638888  0.67616352    -0.26110
N340        N  0.48509888  0.41210019  0.70832730    -0.25720
N341        N  0.06204652  0.02077857  0.80862950     0.01320
C342        C  0.43917679  0.05045192  0.66661930     0.42710
C343        C  0.45899113  0.43808419  0.83675560    -0.06970
N344        N  0.06146573  0.41342714  0.70810851    -0.25720
H345        H  0.45721435  0.36332475  0.71921692     0.06860
N346        N  0.45693462  0.06248339  0.69605297    -0.46940
H347        H  0.45293131  0.45546300  0.85923588     0.06850
C348        C  0.10322819  0.40042631  0.82639162     0.42550
C349        C  0.45997028  0.06858385  0.78848228    -0.06470
Co350      Co  0.02393311  0.48162985  0.81239194     0.73820
N351        N  0.45892111  0.39404380  0.79486751    -0.46460
C352        C  0.10051294  0.05775609  0.66397345     0.42820
N353        N  0.08855611  0.02565779  0.83147234    -0.46650
Co354      Co  0.02346822  0.41401309  0.74881519     0.73890
C355        C  0.08823652  0.39089804  0.70353758    -0.06980
C356        C  0.45696254  0.01829201  0.65429039    -0.06540
N357        N  0.06129495  0.04443709  0.78193077    -0.26070
N358        N  0.46318823  0.42420258  0.65411368    -0.46830
H359        H  0.08895185  0.01049629  0.62591528     0.06820
C360        C  0.08660992  0.43322554  0.83932358    -0.06950
Cl361      Cl  0.02306001  0.47853162  0.74520414    -0.49950
C362        C  0.44131009  0.40588338  0.82433255     0.42580
H363        H  0.09449010  0.08909080  0.76850983     0.06790
N364        N  0.08620029  0.39149956  0.79545091    -0.46660
C365        C  0.22616057  0.97898539  0.92871803    -0.26350
C366        C  0.24552361  0.99575631  0.95638253    -0.14420
C367        C  0.24602769  0.03318510  0.95788269     0.36210
C368        C  0.22594160  0.05299086  0.93290522    -0.25790
C369        C  0.20730081  0.03625065  0.90459113    -0.15030
C370        C  0.20818744  0.99870607  0.90205350     0.37290
N371        N  0.19245621  0.98077054  0.87152468    -0.89290
H372        H  0.22670577  0.45021642  0.92680099     0.18410
H373        H  0.22590305  0.08174136  0.93502110     0.18400
N374        N  0.26832195  0.05124904  0.98329487    -0.88310
H375        H  0.19558596  0.45319554  0.87385938     0.35780
H376        H  0.20612660  0.98862296  0.84816826     0.40880
H377        H  0.25257605  0.06811024  0.99888045     0.40490
H378        H  0.28592141  0.06708658  0.96856750     0.35380
C379        C  0.31705910  0.47045687  0.93344924    -0.26350
C380        C  0.29448817  0.45167419  0.95672418    -0.14420
C381        C  0.29202759  0.41436103  0.95382358     0.36210
C382        C  0.31375338  0.39656271  0.92896330    -0.25790
C383        C  0.33585070  0.41541037  0.90491073    -0.15030
C384        C  0.33658978  0.45307320  0.90665621     0.37290
N385        N  0.35551549  0.47378016  0.88010862    -0.89290
H386        H  0.31774416  0.49926844  0.93482779     0.18410
H387        H  0.31271425  0.36779281  0.92788289     0.18400
N388        N  0.26576946  0.39500394  0.97387017    -0.88310
H389        H  0.35324542  0.50101357  0.88535206     0.35780
H390        H  0.34364861  0.46944185  0.85477533     0.40880
H391        H  0.27408952  0.39336503  0.00089376     0.40490
H392        H  0.26426355  0.36873128  0.96474933     0.35380
C393        C  0.05920109  0.15822520  0.58294785    -0.26350
C394        C  0.09559263  0.15662714  0.57585678    -0.14420
C395        C  0.10957106  0.17902599  0.54820976     0.36210
C396        C  0.08746375  0.20352740  0.53042805    -0.25790
C397        C  0.05098640  0.20417278  0.53686872    -0.15030
C398        C  0.03673797  0.18088739  0.56315652     0.37290
N399        N  0.99941732  0.18021799  0.56958136    -0.89290
H400        H  0.04807780  0.14196902  0.60444870     0.18410
H401        H  0.09870191  0.22134690  0.51030321     0.18400
N402        N  0.14537931  0.17653746  0.53602094    -0.88310
H403        H  0.99318548  0.16180805  0.59001054     0.35780
H404        H  0.98722081  0.17124383  0.54575546     0.40880
H405        H  0.15803815  0.15401230  0.54643346     0.40490
H406        H  0.15882915  0.19913357  0.54502873     0.35380
C407        C  0.46661537  0.25172193  0.53025436    -0.26350
C408        C  0.50324685  0.25269828  0.53621167    -0.14420
C409        C  0.51662526  0.27704917  0.56205032     0.36210
C410        C  0.49357373  0.29849931  0.58189482    -0.25790
C411        C  0.45687363  0.29772735  0.57609218    -0.15030
C412        C  0.44352268  0.27474693  0.54881306     0.37290
N413        N  0.40672260  0.27517885  0.53953402    -0.89290
H414        H  0.45596033  0.23308594  0.51070674     0.18410
H415        H  0.50478557  0.31534554  0.60275859     0.18400
N416        N  0.05363963  0.28117349  0.56844474    -0.88310
H417        H  0.40128122  0.25690183  0.51889101     0.35780
H418        H  0.40091998  0.30039253  0.52891151     0.40880
H419        H  0.06602847  0.28620404  0.54357162     0.40490
H420        H  0.06364710  0.25771267  0.57976745     0.35380
C421        C  0.03653505  0.28666709  0.94500630    -0.26350
C422        C  0.04913296  0.25324901  0.95552910    -0.14420
C423        C  0.08484802  0.24566377  0.95005588     0.36210
C424        C  0.10671022  0.27100982  0.93308457    -0.25790
C425        C  0.09319236  0.30279990  0.91720785    -0.15030
C426        C  0.05662245  0.31007987  0.92387506     0.37290
N427        N  0.03746888  0.33928598  0.90841266    -0.89290
H428        H  0.00938475  0.29348279  0.95075467     0.18410
H429        H  0.13438682  0.26469180  0.93189338     0.18400
N430        N  0.09914931  0.21221040  0.96172310    -0.88310
H431        H  0.04102685  0.34042889  0.88022823     0.35780
H432        H  0.04386647  0.36281795  0.92187282     0.40880
H433        H  0.12027769  0.21727678  0.97928808     0.40490
H434        H  0.10917350  0.19934451  0.93883062     0.35380
C435        C  0.46465403  0.18897838  0.90062432    -0.26350
C436        C  0.45710173  0.15504941  0.91417389    -0.14420
C437        C  0.47465801  0.14351711  0.94624463     0.36210
C438        C  0.49827644  0.16659808  0.96416581    -0.25790
C439        C  0.50322610  0.20218308  0.95251248    -0.15030
C440        C  0.48717165  0.21234323  0.91891725     0.37290
N441        N  0.49312130  0.24634778  0.90253973    -0.89290
H442        H  0.45287675  0.19768007  0.87512822     0.18410
H443        H  0.51169380  0.15704900  0.98840310     0.18400
N444        N  0.46789513  0.10934952  0.96224002    -0.88310
H445        H  0.46888597  0.25922005  0.89932765     0.35780
H446        H  0.00395435  0.24246366  0.87672654     0.40880
H447        H  0.47600321  0.08952535  0.94437060     0.40490
H448        H  0.44078246  0.10683078  0.96629940     0.35380
C449        C  0.29809381  0.03469214  0.52943649    -0.26350
C450        C  0.29731506  0.99758070  0.53412886    -0.14420
C451        C  0.31780170  0.98177588  0.56193138     0.36210
C452        C  0.33695014  0.00341079  0.58570349    -0.25790
C453        C  0.33778674  0.04058408  0.58135522    -0.15030
C454        C  0.31926117  0.05628390  0.55163856     0.37290
N455        N  0.32163916  0.09355544  0.54271953    -0.89290
H456        H  0.28238233  0.04695426  0.50809897     0.18410
H457        H  0.35089380  0.99106130  0.60826445     0.18400
N458        N  0.31858262  0.44370337  0.56625475    -0.88310
H459        H  0.33004231  0.09551472  0.51569932     0.35780
H460        H  0.34137733  0.10600312  0.55779651     0.40880
H461        H  0.33005620  0.43309235  0.54287185     0.40490
H462        H  0.33472216  0.43631173  0.58816334     0.35380
C463        C  0.20569233  0.45042763  0.58385926    -0.26350
C464        C  0.20480935  0.41312679  0.58147546    -0.14420
C465        C  0.22395040  0.39626580  0.55324727     0.36210
C466        C  0.24603684  0.41666680  0.53097915    -0.25790
C467        C  0.24722083  0.45387453  0.53389709    -0.15030
C468        C  0.22580011  0.47095397  0.55978566     0.37290
N469        N  0.22512826  0.50916087  0.56197948    -0.89290
H470        H  0.19133556  0.46375841  0.60524334     0.18410
H471        H  0.26227418  0.40332717  0.51108001     0.18400
N472        N  0.22072962  0.35899080  0.54534720    -0.88310
H473        H  0.20824357  0.51753919  0.58264679     0.35780
H474        H  0.21460035  0.51883556  0.53750111     0.40880
H475        H  0.19938647  0.34741206  0.55870932     0.40490
H476        H  0.24384325  0.34632611  0.55396067     0.35380
C477        C  0.18819457  0.02225742  0.05214596    -0.26350
C478        C  0.20377659  0.04529643  0.07768943    -0.14420
C479        C  0.24059241  0.04286960  0.08350156     0.36210
C480        C  0.26080228  0.01925005  0.06287040    -0.25790
C481        C  0.24529274  0.99637516  0.03739118    -0.15030
C482        C  0.20809153  0.99681494  0.03323851     0.37290
N483        N  0.18947678  0.47119945  0.01143311    -0.89290
H484        H  0.15997007  0.02296800  0.04782277     0.18410
H485        H  0.28906310  0.01856298  0.06709939     0.18400
N486        N  0.25763650  0.06309813  0.11144078    -0.88310
H487        H  0.17168449  0.45802360  0.02846785     0.35780
H488        H  0.20634395  0.45134213  0.00216211     0.40880
H489        H  0.27728132  0.07858608  0.09931418     0.40490
H490        H  0.26976653  0.04534393  0.12958217     0.35380
C491        C  0.09124087  0.19959557  0.40437000    -0.26350
C492        C  0.09267543  0.16248124  0.40891589    -0.14420
C493        C  0.07505946  0.14684263  0.43908413     0.36210
C494        C  0.05411379  0.16820387  0.46149920    -0.25790
C495        C  0.05215904  0.20525236  0.45627248    -0.15030
C496        C  0.07186741  0.22097570  0.42800637     0.37290
N497        N  0.07194543  0.25880961  0.42289942    -0.89290
H498        H  0.10448474  0.21222842  0.38164246     0.18410
H499        H  0.03904117  0.15568239  0.48301426     0.18400
N500        N  0.07863496  0.10988022  0.44865896    -0.88310
H501        H  0.06253534  0.26437994  0.39667748     0.35780
H502        H  0.09798154  0.26771071  0.42455926     0.40880
H503        H  0.09893859  0.09761942  0.43437783     0.40490
H504        H  0.05497475  0.09710929  0.44223548     0.35380
C505        C  0.30785558  0.04095105  0.40498761    -0.26350
C506        C  0.34385239  0.04380096  0.41381128    -0.14420
C507        C  0.35715463  0.02306096  0.44327426     0.36210
C508        C  0.33469939  0.99925752  0.46153717    -0.25790
C509        C  0.29847977  0.99750861  0.45336861    -0.15030
C510        C  0.28519116  0.01874375  0.42474364     0.37290
N511        N  0.24846497  0.51808777  0.41572381    -0.89290
H512        H  0.29705692  0.05579962  0.38216207     0.18410
H513        H  0.34553561  0.98267629  0.48304766     0.18400
N514        N  0.39257350  0.02654242  0.45669585    -0.88310
H515        H  0.24591327  0.51036914  0.38852938     0.35780
H516        H  0.23858540  0.54393981  0.41812051     0.40880
H517        H  0.40543475  0.04844718  0.44533948     0.40490
H518        H  0.40638123  0.00354368  0.44962028     0.35380
C519        C  0.08205279  0.23933514  0.04300390    -0.26350
C520        C  0.05010874  0.25392126  0.03106991    -0.14420
C521        C  0.04251307  0.28955265  0.03868851     0.36210
C522        C  0.06597137  0.30937730  0.05996956    -0.25790
C523        C  0.09475170  0.29305791  0.07804883    -0.15030
C524        C  0.10256723  0.25695339  0.06923155     0.37290
N525        N  0.12835886  0.23672550  0.08930041    -0.89290
H526        H  0.08755616  0.21172095  0.03682273     0.18410
H527        H  0.06016519  0.33728202  0.06363542     0.18400
N528        N  0.01054051  0.30542742  0.02569419    -0.88310
H529        H  0.13061365  0.21086302  0.07918471     0.35780
H530        H  0.11930825  0.23422528  0.11604732     0.40880
H531        H  0.01711687  0.32793111  0.01028514     0.40490
H532        H  0.99618368  0.31395039  0.04825143     0.35380
C533        C  0.48687000  0.17606281  0.09399761    -0.26350
C534        C  0.45524815  0.16338632  0.08006756    -0.14420
C535        C  0.44306397  0.17672919  0.04612407     0.36210
C536        C  0.46437034  0.20068262  0.02632976    -0.25790
C537        C  0.49869837  0.20978415  0.03805065    -0.15030
C538        C  0.50785894  0.19974025  0.07452504     0.37290
N539        N  0.03729488  0.21434296  0.09358744    -0.89290
H540        H  0.49499175  0.16842066  0.12131952     0.18410
H541        H  0.45415738  0.21137482  0.00099448     0.18400
N542        N  0.40975364  0.16642094  0.03068770    -0.88310
H543        H  0.05356688  0.19347000  0.10227454     0.35780
H544        H  0.02810836  0.22769709  0.11659314     0.40880
H545        H  0.39734685  0.14709907  0.04659553     0.40490
H546        H  0.41478182  0.15435569  0.00566976     0.35380
C547        C  0.21388954  0.45041974  0.45844384    -0.26350
C548        C  0.25059390  0.44911934  0.45359815    -0.14420
C549        C  0.26449835  0.42385589  0.42917225     0.36210
C550        C  0.24181418  0.40184413  0.40938297    -0.25790
C551        C  0.20501909  0.40289156  0.41412951    -0.15030
C552        C  0.19117902  0.42667838  0.44025620     0.37290
N553        N  0.15428772  0.42629177  0.44880370    -0.89290
H554        H  0.20294050  0.46966131  0.47710511     0.18410
H555        H  0.25339299  0.38432424  0.38943607     0.18400
N556        N  0.30164110  0.41935540  0.42428035    -0.88310
H557        H  0.14850362  0.44519617  0.46869293     0.35780
H558        H  0.14854620  0.40139209  0.46016308     0.40880
H559        H  0.31333870  0.41499061  0.44974646     0.40490
H560        H  0.31207049  0.44245665  0.41268817     0.35380
C561        C  0.33064045  0.44883690  0.02935776    -0.26350
C562        C  0.29454147  0.44975262  0.03775779    -0.14420
C563        C  0.28217572  0.42807298  0.06639284     0.36210
C564        C  0.30562856  0.40616048  0.08574648    -0.25790
C565        C  0.34146905  0.40384656  0.07632832    -0.15030
C566        C  0.35374884  0.42481744  0.04665185     0.37290
N567        N  0.38892626  0.42187033  0.03255472    -0.89290
H568        H  0.34093575  0.46608363  0.00823995     0.18410
H569        H  0.29553451  0.39103526  0.10862588     0.18400
N570        N  0.24553321  0.42762305  0.07548527    -0.88310
H571        H  0.38679837  0.41628489  0.00475897     0.35780
H572        H  0.40190225  0.39981133  0.04354389     0.40880
H573        H  0.24304646  0.43491792  0.10278442     0.40490
H574        H  0.23631116  0.40154997  0.07273974     0.35380
C575        C  0.50222024  0.28607255  0.45765418    -0.26350
C576        C  0.50169630  0.24875691  0.45586190    -0.14420
C577        C  0.47845736  0.23194171  0.43122589     0.36210
C578        C  0.45831914  0.25244348  0.40742292    -0.25790
C579        C  0.45952458  0.28979421  0.40810317    -0.15030
C580        C  0.48069103  0.30680695  0.43462699     0.37290
N581        N  0.48014508  0.34487324  0.43825226    -0.89290
H582        H  0.01981677  0.29898973  0.47675435     0.18410
H583        H  0.44236855  0.23871668  0.38741327     0.18400
N584        N  0.47440867  0.19404626  0.42983516    -0.88310
H585        H  0.99717381  0.35299262  0.45905616     0.35780
H586        H  0.45475254  0.35213075  0.44620362     0.40880
H587        H  0.46960899  0.18446036  0.45613230     0.40490
H588        H  0.49740854  0.18265603  0.41979852     0.35380
C589        C  0.43937140  0.80987317  0.37989619     0.03100
C590        C  0.40631047  0.79738704  0.36844412    -0.13050
C591        C  0.38919437  0.81252961  0.33831345     0.00600
C592        C  0.40399068  0.84228551  0.32112883    -0.11580
C593        C  0.43623735  0.85614481  0.33315370     0.03090
C594        C  0.45427759  0.83922274  0.36181236    -0.11000
H595        H  0.39437450  0.77513913  0.38253101     0.08690
H596        H  0.39036915  0.85449585  0.29833494     0.06220
H597        H  0.48032850  0.84838478  0.36929004     0.06060
C598        C  0.36526353  0.88193699  0.10014730     0.03100
C599        C  0.39682524  0.89659104  0.11381882    -0.13050
C600        C  0.41566611  0.87944435  0.14180108     0.00600
C601        C  0.40217412  0.84815162  0.15723956    -0.11580
C602        C  0.37104240  0.83295663  0.14395108     0.03090
C603        C  0.35340491  0.84917730  0.11457740    -0.11000
H604        H  0.40508756  0.92287734  0.10505883     0.08690
H605        H  0.41462663  0.83694888  0.18134717     0.06220
H606        H  0.32856785  0.83811584  0.10542498     0.06060
C607        C  0.18190047  0.88092778  0.38962341     0.03100
C608        C  0.19380579  0.84779009  0.37640406    -0.13050
C609        C  0.17733920  0.83161871  0.34645753     0.00600
C610        C  0.14694570  0.84708762  0.33144733    -0.11580
C611        C  0.13285910  0.87837492  0.34607616     0.03090
C612        C  0.15079110  0.89552888  0.37450587    -0.11000
H613        H  0.21780267  0.83609228  0.38709851     0.08690
H614        H  0.13532708  0.83582479  0.30706813     0.06220
H615        H  0.14223647  0.92192416  0.38212250     0.06060
C616        C  0.43454994  0.64025559  0.10474800     0.03100
C617        C  0.40352173  0.65334335  0.11970902    -0.13050
C618        C  0.38746233  0.63611643  0.14930990     0.00600
C619        C  0.40276698  0.60502364  0.16380980    -0.11580
C620        C  0.43408321  0.59142712  0.14901847     0.03090
C621        C  0.44964627  0.60918262  0.11935122    -0.11000
H622        H  0.39322008  0.67821291  0.10923734     0.08690
H623        H  0.39075874  0.59191602  0.18698776     0.06220
H624        H  0.47444603  0.60002282  0.10844461     0.06060
C625        C  0.45121738  0.88811517  0.31582456     0.42430
N626        N  0.98321369  0.93411698  0.30691539     0.01320
C627        C  0.48349761  0.54220172  0.15296497    -0.06560
H628        H  0.98930764  0.91052952  0.12302723     0.06810
C629        C  0.10905426  0.90867921  0.20475813    -0.06910
Co630      Co  0.45995098  0.97529158  0.24060525     0.74180
N631        N  0.98559719  0.93803581  0.17453557    -0.26090
Co632      Co  0.02646450  0.97558646  0.17674570     0.74070
C633        C  0.09645253  0.88990554  0.17257925     0.42530
N634        N  0.08644198  0.93703886  0.28783600     0.00930
N635        N  0.06444936  0.93594144  0.18088456     0.01040
N636        N  0.43993157  0.54164825  0.19491952    -0.46930
H637        H  0.41652645  0.90089756  0.26569380     0.06800
N638        N  0.46135098  0.93764118  0.20008235     0.01330
N639        N  0.06707843  0.51355612  0.17913611     0.01070
C640        C  0.10584987  0.55328397  0.16613555     0.42670
N641        N  0.06214633  0.93657876  0.31331276    -0.25540
C642        C  0.43315637  0.53641231  0.28767543    -0.06460
N643        N  0.97902677  0.90645526  0.32890265    -0.46650
N644        N  0.07717583  0.53597976  0.15307796    -0.46870
C645        C  0.44083691  0.55005930  0.32370269     0.42440
N646        N  0.46258606  0.51528047  0.20047774     0.01310
N647        N  0.05840563  0.51385169  0.31233881    -0.25560
N648        N  0.45975212  0.93513241  0.28024659    -0.26060
N649        N  0.08390107  0.51469040  0.28801938     0.00950
H650        H  0.04483234  0.54770880  0.35729272     0.06840
H651        H  0.13643290  0.54260483  0.21899687     0.06880
N652        N  0.98816676  0.51506606  0.17621120    -0.26110
N653        N  0.08764826  0.93664385  0.20777733    -0.25720
N654        N  0.97992839  0.51132011  0.30979162     0.01320
C655        C  0.44299125  0.89896501  0.16187125     0.42710
C656        C  0.07203389  0.91271782  0.33895686    -0.06970
N657        N  0.08868249  0.51396155  0.20731478    -0.25720
H658        H  0.13044510  0.90237215  0.22318200     0.06860
N659        N  0.43551799  0.91508254  0.19343074    -0.46940
H660        H  0.05868921  0.90786815  0.36446109     0.06850
C661        C  0.09304808  0.56034635  0.32142514     0.42550
C662        C  0.43826104  0.90710009  0.28366519    -0.06470
Co663      Co  0.02083758  0.97383834  0.31151926     0.73820
N664        N  0.11258962  0.91465892  0.29434167    -0.46660
C665        C  0.45145438  0.55981979  0.16536282     0.42820
N666        N  0.46970195  0.53277118  0.33637280    -0.46650
Co667      Co  0.08721256  0.97572993  0.24774346     0.73890
C668        C  0.11360714  0.53843564  0.20182014    -0.06980
C669        C  0.47595036  0.91468059  0.14860174    -0.06540
N670        N  0.45829948  0.51240553  0.28162757    -0.26070
N671        N  0.06883349  0.90840530  0.15898519    -0.46830
H672        H  0.00017948  0.54812923  0.12994330     0.06820
C673        C  0.06194191  0.54163625  0.33471144    -0.06950
Cl674      Cl  0.02359085  0.97519359  0.24413785    -0.49950
C675        C  0.10524884  0.89762471  0.32565695     0.42580
H676        H  0.41026176  0.54090333  0.27063260     0.06790
N677        N  0.10533482  0.54207476  0.29255849    -0.46660
C678        C  0.11357787  0.81315753  0.10779293     0.03100
C679        C  0.09622107  0.84079791  0.12671665    -0.13050
C680        C  0.11287193  0.85880682  0.15530034     0.00600
C681        C  0.14556635  0.84696952  0.16771861    -0.11580
C682        C  0.16278802  0.81902739  0.15054601     0.03090
C683        C  0.14814286  0.80432394  0.11894357    -0.11000
H684        H  0.06948405  0.84827955  0.12009877     0.08690
H685        H  0.15772200  0.85957951  0.19088492     0.06220
H686        H  0.16388257  0.78574523  0.10377264     0.06060
C687        C  0.36663883  0.56611711  0.38960220     0.03100
C688        C  0.39752271  0.55165036  0.37441879    -0.13050
C689        C  0.41475223  0.56908150  0.34565501     0.00600
C690        C  0.40071537  0.60069279  0.33151937    -0.11580
C691        C  0.37022890  0.61558032  0.34619092     0.03090
C692        C  0.35398729  0.59898741  0.37603250    -0.11000
H693        H  0.40620051  0.52527341  0.38248042     0.08690
H694        H  0.41199425  0.61226021  0.30707345     0.06220
H695        H  0.32944865  0.60973667  0.38615146     0.06060
C696        C  0.11049478  0.64121932  0.38025886     0.03100
C697        C  0.09377562  0.61146892  0.36488217    -0.13050
C698        C  0.10960949  0.59260996  0.33641619     0.00600
C699        C  0.14146240  0.60483022  0.32191225    -0.11580
C700        C  0.15792578  0.63513329  0.33603268     0.03090
C701        C  0.14276819  0.65268330  0.36572691    -0.11000
H702        H  0.06822344  0.60337957  0.37485098     0.08690
H703        H  0.15332298  0.59071728  0.29948256     0.06220
H704        H  0.15569520  0.67583062  0.37709090     0.06060
C705        C  0.18095148  0.56844991  0.10093988     0.03100
C706        C  0.14978972  0.55439656  0.11610457    -0.13050
C707        C  0.13230442  0.57223540  0.14421926     0.00600
C708        C  0.14626621  0.60413829  0.15754410    -0.11580
C709        C  0.17624617  0.61937044  0.14181056     0.03090
C710        C  0.19246324  0.60234980  0.11237615    -0.11000
H711        H  0.14109469  0.52789682  0.10882943     0.08690
H712        H  0.13509503  0.61595046  0.18177845     0.06220
H713        H  0.21610078  0.61391140  0.10094857     0.06060
C714        C  0.35063781  0.64162851  0.32395973     0.42430
N715        N  0.31100638  0.68022024  0.31025316     0.01320
C716        C  0.21223545  0.67929889  0.14981764    -0.06560
H717        H  0.34363659  0.70205992  0.13095543     0.06810
C718        C  0.33793042  0.81492785  0.20210579    -0.06910
Co719      Co  0.27371432  0.65999114  0.24155013     0.74180
N720        N  0.31206395  0.68890749  0.17724133    -0.26090
Co721      Co  0.27413327  0.72811862  0.17753048     0.74070
C722        C  0.35259930  0.80647373  0.16664158     0.42530
N723        N  0.31292287  0.78571181  0.28877805     0.00930
N724        N  0.31252372  0.76821364  0.18004880     0.01040
N725        N  0.21231204  0.63739010  0.19406040    -0.46930
H726        H  0.34049234  0.61019971  0.27153968     0.06800
N727        N  0.31256104  0.66269071  0.20129006     0.01330
N728        N  0.23629878  0.76759089  0.18010391     0.01070
C729        C  0.19490672  0.80404915  0.16711547     0.42670
N730        N  0.31236317  0.75973420  0.31309730    -0.25540
C731        C  0.20784285  0.63675059  0.28624306    -0.06460
N732        N  0.33332036  0.67054023  0.33646052    -0.46650
N733        N  0.21137187  0.77432890  0.15573948    -0.46870
C734        C  0.19032018  0.64909837  0.31921854     0.42440
N735        N  0.23557426  0.66264806  0.20091715     0.01310
N736        N  0.23614722  0.76228741  0.31318969    -0.25560
N737        N  0.31145488  0.65814300  0.28244064    -0.26060
N738        N  0.23611771  0.78727071  0.28779949     0.00950
H739        H  0.20772327  0.75698242  0.36385679     0.06840
H740        H  0.20662481  0.83761193  0.21835391     0.06880
N741        N  0.23609911  0.68771194  0.17561722    -0.26110
N742        N  0.31317186  0.79026808  0.20786494    -0.25720
N743        N  0.23461404  0.68259378  0.30835937     0.01320
C744        C  0.35591844  0.65216334  0.16579402     0.42710
C745        C  0.33907022  0.76414400  0.33647441    -0.06970
N746        N  0.23702229  0.79092055  0.20682636    -0.25720
H747        H  0.34248840  0.83807900  0.21886364     0.06860
N748        N  0.33858899  0.63988139  0.19544672    -0.46940
H749        H  0.34495141  0.74693037  0.35939049     0.06850
C750        C  0.19649269  0.80448251  0.32545725     0.42550
C751        C  0.33594144  0.63325141  0.28840354    -0.06470
Co752      Co  0.27348668  0.72112384  0.31203507     0.73820
N753        N  0.33913886  0.80827485  0.29416750    -0.46660
C754        C  0.19592839  0.64620096  0.16269556     0.42820
N755        N  0.20835740  0.67761579  0.33136827    -0.46650
Co756      Co  0.27483421  0.78905531  0.24792504     0.73890
C757        C  0.21174193  0.81499371  0.20110617    -0.06980
C758        C  0.33830379  0.68462245  0.15376966    -0.06540
N759        N  0.23493271  0.65912916  0.28172455    -0.26070
N760        N  0.33490245  0.77774113  0.15405684    -0.46830
H761        H  0.20803757  0.69356567  0.12450759     0.06820
C762        C  0.21225923  0.77113493  0.33858398    -0.06950
Cl763      Cl  0.27400830  0.72456771  0.24476239    -0.49950
C764        C  0.35669819  0.79645180  0.32387969     0.42580
H765        H  0.20150126  0.61468032  0.26862896     0.06790
N766        N  0.21323061  0.81297290  0.29431163    -0.46660
C767        C  0.27428944  0.97366363  0.47472211     0.00540
C768        C  0.27294165  0.97507623  0.51204687     0.00530
C769        C  0.02378656  0.73027473  0.01301318     0.00540
C770        C  0.02495286  0.72800728  0.97531784     0.00530
C771        C  0.02709080  0.72740800  0.47793964     0.00540
C772        C  0.02741272  0.72842828  0.51530438     0.00530
C773        C  0.26938260  0.97262325  0.01619286     0.00540
C774        C  0.26956240  0.97309597  0.97884259     0.00530
C775        C  0.35640055  0.89556671  0.87702359     0.03100
C776        C  0.34183469  0.86571498  0.85961760    -0.13050
C777        C  0.36056789  0.84772090  0.83252922     0.00600
C778        C  0.39324463  0.86092998  0.82118348    -0.11580
C779        C  0.40806891  0.89072770  0.83800745     0.03090
C780        C  0.39034756  0.90672367  0.86705881    -0.11000
H781        H  0.31566471  0.85667028  0.86669562     0.08690
H782        H  0.40737710  0.84793179  0.79946498     0.06220
H783        H  0.40273643  0.92830622  0.88160322     0.06060
C784        C  0.43264420  0.63246526  0.89223556     0.03100
C785        C  0.40046356  0.64700839  0.87934212    -0.13050
C786        C  0.38266652  0.63165053  0.84963464     0.00600
C787        C  0.39624375  0.60067234  0.83402674    -0.11580
C788        C  0.42740884  0.58532235  0.84708825     0.03090
C789        C  0.44543309  0.60112496  0.87624026    -0.11000
H790        H  0.39159075  0.67247612  0.88956164     0.08690
H791        H  0.38414154  0.59018459  0.80951263     0.06220
H792        H  0.47157250  0.59164008  0.88307705     0.06060
C793        C  0.18872730  0.55838686  0.87689560     0.03100
C794        C  0.15544612  0.54843141  0.86371242    -0.13050
C795        C  0.13934271  0.56746069  0.83524964     0.00600
C796        C  0.15555245  0.59819708  0.82165439    -0.11580
C797        C  0.18792683  0.60956517  0.83584571     0.03090
C798        C  0.20470741  0.58920905  0.86289025    -0.11000
H799        H  0.14233784  0.52539200  0.87518593     0.08690
H800        H  0.14294159  0.61343860  0.80016996     0.06220
H801        H  0.23052750  0.59690933  0.87259682     0.06060
C802        C  0.11666070  0.82419948  0.89128194     0.03100
C803        C  0.10836526  0.85920938  0.87945938    -0.13050
C804        C  0.12306776  0.87352824  0.84759013     0.00600
C805        C  0.15146864  0.85624494  0.83129627    -0.11580
C806        C  0.16470397  0.82461658  0.84616603     0.03090
C807        C  0.14634073  0.80794408  0.87465583    -0.11000
H808        H  0.08899502  0.87509641  0.89274258     0.08690
H809        H  0.16239828  0.86669515  0.80618537     0.06220
H810        H  0.15418345  0.78107466  0.88125114     0.06060
C811        C  0.11805495  0.63412429  0.60035348     0.03100
C812        C  0.14830864  0.64873019  0.61686196    -0.13050
C813        C  0.16490754  0.63130032  0.64611423     0.00600
C814        C  0.15047433  0.59966011  0.65980354    -0.11580
C815        C  0.12080965  0.58436894  0.64339862     0.03090
C816        C  0.10555633  0.60089211  0.61285768    -0.11000
H817        H  0.15698580  0.67523748  0.60938279     0.08690
H818        H  0.16099741  0.58813328  0.68471569     0.06220
H819        H  0.08166349  0.58977922  0.60136369     0.06060
C820        C  0.35693551  0.56151493  0.60943798     0.03100
C821        C  0.38992675  0.54990023  0.62182359    -0.13050
C822        C  0.40642355  0.56594388  0.65174180     0.00600
C823        C  0.39075535  0.59574422  0.66789380    -0.11580
C824        C  0.35826755  0.60858295  0.65498300     0.03090
C825        C  0.34099017  0.59053290  0.62661253    -0.11000
H826        H  0.40213956  0.52748286  0.60854299     0.08690
H827        H  0.40370462  0.60877810  0.69053464     0.06220
H828        H  0.31493330  0.59866634  0.61795179     0.06060
C829        C  0.34604692  0.81509088  0.81634205     0.42430
N830        N  0.31455645  0.76855396  0.80867127     0.01320
C831        C  0.31129012  0.65963148  0.65738606    -0.06560
H832        H  0.30912710  0.79133506  0.62395795     0.06810
C833        C  0.18842997  0.79474194  0.70501408    -0.06910
Co834      Co  0.33752422  0.72702435  0.74320251     0.74180
N835        N  0.31227565  0.76449987  0.67622949    -0.26090
Co836      Co  0.27080779  0.72761422  0.67868381     0.74070
C837        C  0.20092900  0.81340702  0.67266501     0.42530
N838        N  0.21121045  0.76619534  0.78867804     0.00930
N839        N  0.23317318  0.76761572  0.68194362     0.01040
N840        N  0.35509360  0.65916948  0.69952630    -0.46930
H841        H  0.38062917  0.80195520  0.76672095     0.06800
N842        N  0.33664784  0.76454229  0.70188636     0.01330
N843        N  0.22990186  0.69008870  0.68095558     0.01070
C844        C  0.19118195  0.65034723  0.66811268     0.42670
N845        N  0.23542685  0.76633690  0.81448001    -0.25540
C846        C  0.36453707  0.66610268  0.79162474    -0.06460
N847        N  0.31844404  0.79669715  0.82979800    -0.46650
N848        N  0.21986135  0.66760635  0.65511413    -0.46870
C849        C  0.35708509  0.65253602  0.82787664     0.42440
N850        N  0.33386888  0.68684354  0.70380662     0.01310
N851        N  0.23889058  0.68907142  0.81390729    -0.25560
N852        N  0.33797882  0.76736061  0.78217487    -0.26060
N853        N  0.21336254  0.68877288  0.78935508     0.00950
H854        H  0.25248716  0.65407172  0.85843743     0.06840
H855        H  0.16056459  0.66107656  0.72054673     0.06880
N856        N  0.30822105  0.68759947  0.67938391    -0.26110
N857        N  0.20995475  0.76691631  0.70861379    -0.25720
N858        N  0.31772602  0.69117111  0.81298927     0.01320
C859        C  0.35590725  0.80219040  0.66270640     0.42710
C860        C  0.22535628  0.78985904  0.84002040    -0.06970
N861        N  0.20831970  0.68972381  0.70891494    -0.25720
H862        H  0.16700834  0.80097203  0.72315943     0.06860
N863        N  0.36305866  0.78631042  0.69474539    -0.46940
H864        H  0.23853369  0.79438024  0.86574724     0.06850
C865        C  0.20416088  0.64245577  0.82200597     0.42550
C866        C  0.35918212  0.79566319  0.78490037    -0.06470
Co867      Co  0.27673674  0.72889002  0.81350590     0.73820
N868        N  0.18495393  0.78839663  0.79485961    -0.46660
C869        C  0.34226202  0.64072482  0.67082364     0.42820
N870        N  0.32810143  0.66978760  0.84001921    -0.46650
Co871      Co  0.21022268  0.72781417  0.74891449     0.73890
C872        C  0.18336304  0.66527166  0.70350047    -0.06980
C873        C  0.32242238  0.78726498  0.64974964    -0.06540
N874        N  0.33927311  0.69000837  0.78497300    -0.26070
N875        N  0.22871394  0.79508443  0.65961372    -0.46830
H876        H  0.29398421  0.65372761  0.63476788     0.06820
C877        C  0.23530456  0.66078711  0.83587677    -0.06950
Cl878      Cl  0.27385458  0.72784874  0.74609076    -0.49950
C879        C  0.19211431  0.80497178  0.82630958     0.42580
H880        H  0.38734153  0.66152810  0.77473591     0.06790
N881        N  0.19191714  0.66133488  0.79329263    -0.46660
C882        C  0.43335259  0.81932880  0.60046894     0.03100
C883        C  0.40187264  0.80462214  0.61445565    -0.13050
C884        C  0.38335387  0.82158548  0.64249940     0.00600
C885        C  0.39700392  0.85280103  0.65768114    -0.11580
C886        C  0.42786956  0.86820780  0.64413121     0.03090
C887        C  0.44511128  0.85224429  0.61463946    -0.11000
H888        H  0.39347816  0.77830742  0.60630463     0.08690
H889        H  0.38479619  0.86388561  0.68174156     0.06220
H890        H  0.46946204  0.86390709  0.60505329     0.06060
C891        C  0.18607645  0.89296987  0.61049596     0.03100
C892        C  0.20215652  0.86340880  0.62740896    -0.13050
C893        C  0.18531333  0.84540308  0.65589726     0.00600
C894        C  0.15324011  0.85824812  0.66888911    -0.11580
C895        C  0.13762143  0.88854092  0.65371189     0.03090
C896        C  0.15356627  0.90525862  0.62382846    -0.11000
H897        H  0.22793383  0.85466073  0.61871188     0.08690
H898        H  0.14034917  0.84463935  0.69105014     0.06220
H899        H  0.14106808  0.92828102  0.61145948     0.06060
C900        C  0.44567746  0.55947546  0.82402646     0.42430
N901        N  0.48572756  0.52168580  0.81017152     0.01320
C902        C  0.08424407  0.52483463  0.65088011    -0.06560
H903        H  0.45110040  0.50095414  0.63167485     0.06810
C904        C  0.46111680  0.88670063  0.70238139    -0.06910
Co905      Co  0.02235716  0.54315409  0.74170448     0.74180
N906        N  0.48385252  0.51406910  0.67740952    -0.26090
Co907      Co  0.02266769  0.97539179  0.67796693     0.74070
C908        C  0.44635178  0.89483450  0.66663935     0.42530
N909        N  0.48526604  0.91653201  0.78955152     0.00930
N910        N  0.48517181  0.93431850  0.68036335     0.01040
N911        N  0.08376560  0.56651571  0.69488800    -0.46930
H912        H  0.45503150  0.59186881  0.77176492     0.06800
N913        N  0.48341352  0.54005628  0.70144972     0.01330
N914        N  0.06156373  0.93686827  0.68119872     0.01070
C915        C  0.10541252  0.90304459  0.67018495     0.42670
N916        N  0.48572842  0.94246273  0.81363227    -0.25540
C917        C  0.08829869  0.56696243  0.78630225    -0.06460
N918        N  0.46352407  0.53066343  0.83636174    -0.46650
N919        N  0.08751329  0.93172650  0.65785610    -0.46870
C920        C  0.10624880  0.55438834  0.81921949     0.42440
N921        N  0.06032473  0.54130056  0.70132622     0.01310
N922        N  0.06204795  0.94134543  0.81404286    -0.25560
N923        N  0.48476754  0.54411718  0.78242900    -0.26060
N924        N  0.06237855  0.91643577  0.78890472     0.00950
H925        H  0.09123525  0.94758906  0.86433295     0.06840
H926        H  0.09449035  0.86883096  0.72142948     0.06880
N927        N  0.06003452  0.51638889  0.67616356    -0.26110
N928        N  0.48509929  0.91210031  0.70832720    -0.25720
N929        N  0.06204602  0.52077869  0.80862941     0.01320
C930        C  0.43917565  0.55045106  0.66661975     0.42710
C931        C  0.45899153  0.93808403  0.83675545    -0.06970
N932        N  0.06146621  0.91342727  0.70810837    -0.25720
H933        H  0.45721463  0.86332498  0.71921697     0.06860
N934        N  0.45693358  0.56248275  0.69605326    -0.46940
H935        H  0.45293171  0.95546276  0.85923579     0.06850
C936        C  0.10322836  0.90042619  0.82639175     0.42550
C937        C  0.45996962  0.56858365  0.78848241    -0.06470
Co938      Co  0.02393349  0.98162982  0.81239188     0.73820
N939        N  0.45892165  0.89404364  0.79486735    -0.46460
C940        C  0.10051235  0.55775623  0.66397357     0.42820
N941        N  0.08855561  0.52565804  0.83147222    -0.46650
Co942      Co  0.02346867  0.91401314  0.74881505     0.73890
C943        C  0.08823721  0.89089839  0.70353755    -0.06980
C944        C  0.45696169  0.51829138  0.65429068    -0.06540
N945        N  0.06129431  0.54443722  0.78193069    -0.26070
N946        N  0.46318841  0.92420281  0.65411372    -0.46830
H947        H  0.08895152  0.51049632  0.62591544     0.06820
C948        C  0.08661010  0.93322542  0.83932367    -0.06950
Cl949      Cl  0.02306049  0.97853168  0.74520408    -0.49950
C950        C  0.44131061  0.90588312  0.82433241     0.42580
H951        H  0.09448925  0.58909109  0.76850970     0.06790
N952        N  0.08620060  0.89149950  0.79545094    -0.46660
C953        C  0.22615952  0.47898555  0.92871787    -0.26350
C954        C  0.24552254  0.49575644  0.95638240    -0.14420
C955        C  0.24602678  0.53318524  0.95788249     0.36210
C956        C  0.22594084  0.55299103  0.93290495    -0.25790
C957        C  0.20730008  0.53625085  0.90459083    -0.15030
C958        C  0.20818656  0.49870626  0.90205325     0.37290
N959        N  0.19245537  0.48077076  0.87152440    -0.89290
H960        H  0.22670691  0.95021626  0.92680110     0.18410
H961        H  0.22590239  0.58174154  0.93502078     0.18400
N962        N  0.26832107  0.55124913  0.98329468    -0.88310
H963        H  0.19558692  0.95319533  0.87385962     0.35780
H964        H  0.20612586  0.48862310  0.84816802     0.40880
H965        H  0.25257522  0.56811044  0.99888018     0.40490
H966        H  0.28592062  0.56708655  0.96856730     0.35380
C967        C  0.31706017  0.97045658  0.93344931    -0.26350
C968        C  0.29448921  0.95167399  0.95672429    -0.14420
C969        C  0.29202852  0.91436083  0.95382374     0.36210
C970        C  0.31375423  0.89656241  0.92896346    -0.25790
C971        C  0.33585158  0.91540999  0.90491085    -0.15030
C972        C  0.33659078  0.95307282  0.90665629     0.37290
N973        N  0.35551653  0.97377969  0.88010867    -0.89290
H974        H  0.31774531  0.99926815  0.93482783     0.18410
H975        H  0.31271501  0.86779251  0.92788308     0.18400
N976        N  0.26577035  0.89500384  0.97387038    -0.88310
H977        H  0.35324655  0.00101311  0.88535208     0.35780
H978        H  0.34364962  0.96944141  0.85477539     0.40880
H979        H  0.27409054  0.89336475  0.00089391     0.40490
H980        H  0.26426423  0.86873123  0.96474943     0.35380
C981        C  0.05920076  0.65822544  0.58294795    -0.26350
C982        C  0.09559230  0.65662726  0.57585687    -0.14420
C983        C  0.10957079  0.67902607  0.54820984     0.36210
C984        C  0.08746357  0.70352755  0.53042814    -0.25790
C985        C  0.05098622  0.70417305  0.53686882    -0.15030
C986        C  0.03673771  0.68088770  0.56315662     0.37290
N987        N  0.99941706  0.68021842  0.56958146    -0.89290
H988        H  0.04807743  0.64196930  0.60444880     0.18410
H989        H  0.09870178  0.72134701  0.51030330     0.18400
N990        N  0.14537903  0.67653742  0.53602101    -0.88310
H991        H  0.99318517  0.66180850  0.59001065     0.35780
H992        H  0.98722052  0.67124430  0.54575557     0.40880
H993        H  0.15803780  0.65401223  0.54643355     0.40490
H994        H  0.15882895  0.69913349  0.54502878     0.35380
C995        C  0.46661529  0.75172231  0.53025441    -0.26350
C996        C  0.50324678  0.75269863  0.53621172    -0.14420
C997        C  0.51662521  0.77704955  0.56205033     0.36210
C998        C  0.49357370  0.79849972  0.58189481    -0.25790
C999        C  0.45687359  0.79772776  0.57609218    -0.15030
C1000       C  0.44352262  0.77474735  0.54881308     0.37290
N1001       N  0.40672254  0.77517930  0.53953404    -0.89290
H1002       H  0.45596023  0.73308630  0.51070681     0.18410
H1003       H  0.50478555  0.81534596  0.60275857     0.18400
N1004       N  0.05363958  0.78117385  0.56844473    -0.88310
H1005       H  0.40128115  0.75690227  0.51889104     0.35780
H1006       H  0.40091994  0.80039298  0.52891153     0.40880
H1007       H  0.06602841  0.78620437  0.54357159     0.40490
H1008       H  0.06364704  0.75771302  0.57976744     0.35380
C1009       C  0.03653499  0.78666684  0.94500634    -0.26350
C1010       C  0.04913291  0.75324877  0.95552916    -0.14420
C1011       C  0.08484797  0.74566353  0.95005595     0.36210
C1012       C  0.10671017  0.77100958  0.93308461    -0.25790
C1013       C  0.09319232  0.80279965  0.91720789    -0.15030
C1014       C  0.05662239  0.81007962  0.92387510     0.37290
N1015       N  0.03746881  0.83928570  0.90841266    -0.89290
H1016       H  0.00938468  0.79348252  0.95075468     0.18410
H1017       H  0.13438676  0.76469156  0.93189343     0.18400
N1018       N  0.09914927  0.71221017  0.96172319    -0.88310
H1019       H  0.04102682  0.84042861  0.88022824     0.35780
H1020       H  0.04386636  0.86281768  0.92187283     0.40880
H1021       H  0.12027764  0.71727657  0.97928817     0.40490
H1022       H  0.10917346  0.69934427  0.93883071     0.35380
C1023       C  0.46465394  0.68897818  0.90062435    -0.26350
C1024       C  0.45710150  0.65504926  0.91417399    -0.14420
C1025       C  0.47465772  0.64351697  0.94624477     0.36210
C1026       C  0.49827620  0.66659789  0.96416594    -0.25790
C1027       C  0.50322600  0.70218286  0.95251254    -0.15030
C1028       C  0.48717164  0.71234298  0.91891724     0.37290
N1029       N  0.49312151  0.74634744  0.90253961    -0.89290
H1030       H  0.45287673  0.69767985  0.87512822     0.18410
H1031       H  0.51169351  0.65704881  0.98840325     0.18400
N1032       N  0.46789472  0.60934942  0.96224021    -0.88310
H1033       H  0.46888625  0.75921983  0.89932743     0.35780
H1034       H  0.00395462  0.74246313  0.87672644     0.40880
H1035       H  0.47600275  0.58952520  0.94437082     0.40490
H1036       H  0.44078204  0.60683078  0.96629957     0.35380
C1037       C  0.29809256  0.53469126  0.52943699    -0.26350
C1038       C  0.29731371  0.49757980  0.53412911    -0.14420
C1039       C  0.31779999  0.48177480  0.56193182     0.36210
C1040       C  0.33694823  0.50340955  0.58570427    -0.25790
C1041       C  0.33778500  0.54058284  0.58135619    -0.15030
C1042       C  0.31925974  0.55628285  0.55163942     0.37290
N1043       N  0.32163792  0.59355443  0.54272058    -0.89290
H1044       H  0.28238131  0.54695354  0.50809939     0.18410
H1045       H  0.35089166  0.49105991  0.60826532     0.18400
N1046       N  0.31858446  0.94370448  0.56625449    -0.88310
H1047       H  0.33004124  0.59551381  0.51570043     0.35780
H1048       H  0.34137604  0.60600198  0.55779772     0.40880
H1049       H  0.33005779  0.93309337  0.54287150     0.40490
H1050       H  0.33472427  0.93631298  0.58816292     0.35380
C1051       C  0.20569399  0.95042860  0.58385998    -0.26350
C1052       C  0.20481081  0.91312777  0.58147616    -0.14420
C1053       C  0.22395172  0.89626671  0.55324790     0.36210
C1054       C  0.24603811  0.91666762  0.53097965    -0.25790
C1055       C  0.24722220  0.95387535  0.53389751    -0.15030
C1056       C  0.22580175  0.97095486  0.55978627     0.37290
N1057       N  0.22513008  0.00916177  0.56198014    -0.89290
H1058       H  0.19133735  0.96375942  0.60524412     0.18410
H1059       H  0.26227531  0.90332791  0.51108044     0.18400
N1060       N  0.22073079  0.85899171  0.54534785    -0.88310
H1061       H  0.20824558  0.01754014  0.58264759     0.35780
H1062       H  0.21460204  0.01883653  0.53750185     0.40880
H1063       H  0.19938756  0.84741308  0.55870991     0.40490
H1064       H  0.24384435  0.84632693  0.55396137     0.35380
C1065       C  0.18819357  0.52225789  0.05214581    -0.26350
C1066       C  0.20377568  0.54529692  0.07768920    -0.14420
C1067       C  0.24059151  0.54287005  0.08350122     0.36210
C1068       C  0.26080129  0.51925038  0.06287012    -0.25790
C1069       C  0.24529165  0.49637543  0.03739103    -0.15030
C1070       C  0.20809044  0.49681531  0.03323839     0.37290
N1071       N  0.18947796  0.97119908  0.01143316    -0.89290
H1072       H  0.15996906  0.52296851  0.04782268     0.18410
H1073       H  0.28906212  0.51856328  0.06709905     0.18400
N1074       N  0.25763572  0.56309867  0.11144031    -0.88310
H1075       H  0.17168567  0.95802316  0.02846785     0.35780
H1076       H  0.20634519  0.95134180  0.00216218     0.40880
H1077       H  0.27728053  0.57858653  0.09931357     0.40490
H1078       H  0.26976578  0.54534451  0.12958174     0.35380
C1079       C  0.09124062  0.69959575  0.40437001    -0.26350
C1080       C  0.09267516  0.66248142  0.40891592    -0.14420
C1081       C  0.07505920  0.64684285  0.43908419     0.36210
C1082       C  0.05411360  0.66820412  0.46149928    -0.25790
C1083       C  0.05215890  0.70525262  0.45627255    -0.15030
C1084       C  0.07186723  0.72097591  0.42800640     0.37290
N1085       N  0.07194530  0.75880983  0.42289942    -0.89290
H1086       H  0.10448448  0.71222857  0.38164244     0.18410
H1087       H  0.03904099  0.65568268  0.48301437     0.18400
N1088       N  0.07863467  0.60988043  0.44865904    -0.88310
H1089       H  0.06253517  0.76438015  0.39667750     0.35780
H1090       H  0.09798142  0.76771089  0.42455921     0.40880
H1091       H  0.09893829  0.59761961  0.43437792     0.40490
H1092       H  0.05497444  0.59710953  0.44223558     0.35380
C1093       C  0.30785470  0.54095066  0.40498762    -0.26350
C1094       C  0.34385149  0.54380056  0.41381140    -0.14420
C1095       C  0.35715361  0.52306063  0.44327450     0.36210
C1096       C  0.33469828  0.49925725  0.46153740    -0.25790
C1097       C  0.29847870  0.49750831  0.45336868    -0.15030
C1098       C  0.28519020  0.51874341  0.42474362     0.37290
N1099       N  0.24846590  0.01808811  0.41572398    -0.89290
H1100       H  0.29705612  0.55579920  0.38216201     0.18410
H1101       H  0.34553442  0.48267605  0.48304795     0.18400
N1102       N  0.39257244  0.52654208  0.45669619    -0.88310
H1103       H  0.24591409  0.01036954  0.38852955     0.35780
H1104       H  0.23858633  0.04394014  0.41812078     0.40880
H1105       H  0.40543376  0.54844678  0.44533978     0.40490
H1106       H  0.40638015  0.50354329  0.44962075     0.35380
C1107       C  0.08205272  0.73933490  0.04300400    -0.26350
C1108       C  0.05010868  0.75392103  0.03106999    -0.14420
C1109       C  0.04251301  0.78955241  0.03868860     0.36210
C1110       C  0.06597130  0.80937706  0.05996968    -0.25790
C1111       C  0.09475163  0.79305767  0.07804895    -0.15030
C1112       C  0.10256715  0.75695314  0.06923166     0.37290
N1113       N  0.12835878  0.73672526  0.08930053    -0.89290
H1114       H  0.08755610  0.71172071  0.03682282     0.18410
H1115       H  0.06016511  0.83728178  0.06363555     0.18400
N1116       N  0.01054046  0.80542719  0.02569426    -0.88310
H1117       H  0.13061356  0.71086277  0.07918483     0.35780
H1118       H  0.11930817  0.73422505  0.11604744     0.40880
H1119       H  0.01711683  0.82793088  0.01028522     0.40490
H1120       H  0.99618361  0.81395015  0.04825149     0.35380
C1121       C  0.48686980  0.67606268  0.09399767    -0.26350
C1122       C  0.45524792  0.66338625  0.08006762    -0.14420
C1123       C  0.44306376  0.67672918  0.04612414     0.36210
C1124       C  0.46437019  0.70068256  0.02632983    -0.25790
C1125       C  0.49869825  0.70978399  0.03805071    -0.15030
C1126       C  0.50785880  0.69974005  0.07452510     0.37290
N1127       N  0.03729483  0.71434262  0.09358748    -0.89290
H1128       H  0.49499153  0.66842050  0.12131958     0.18410
H1129       H  0.45415726  0.71137478  0.00099455     0.18400
N1130       N  0.40975340  0.66642101  0.03068777    -0.88310
H1131       H  0.05356675  0.69346960  0.10227455     0.35780
H1132       H  0.02810838  0.72769677  0.11659320     0.40880
H1133       H  0.39734658  0.64709914  0.04659557     0.40490
H1134       H  0.41478156  0.65435577  0.00566981     0.35380
C1135       C  0.21389061  0.95042011  0.45844420    -0.26350
C1136       C  0.25059495  0.94911967  0.45359843    -0.14420
C1137       C  0.26449931  0.92385620  0.42917248     0.36210
C1138       C  0.24181506  0.90184454  0.40938317    -0.25790
C1139       C  0.20501997  0.90289207  0.41412972    -0.15030
C1140       C  0.19118000  0.92667887  0.44025649     0.37290
N1141       N  0.15428870  0.92629237  0.44880400    -0.89290
H1142       H  0.20294164  0.96966167  0.47710552     0.18410
H1143       H  0.25339381  0.88432464  0.38943624     0.18400
N1144       N  0.30164204  0.91935561  0.42428054    -0.88310
H1145       H  0.14850467  0.94519673  0.46869329     0.35780
H1146       H  0.14854710  0.90139267  0.46016332     0.40880
H1147       H  0.31333966  0.91499079  0.44974663     0.40490
H1148       H  0.31207149  0.94245683  0.41268833     0.35380
C1149       C  0.33064154  0.94883651  0.02935782    -0.26350
C1150       C  0.29454257  0.94975236  0.03775787    -0.14420
C1151       C  0.28217674  0.92807268  0.06639285     0.36210
C1152       C  0.30562950  0.90616003  0.08574641    -0.25790
C1153       C  0.34146997  0.90384600  0.07632824    -0.15030
C1154       C  0.35374985  0.92481690  0.04665183     0.37290
N1155       N  0.38892726  0.92186970  0.03255470    -0.89290
H1156       H  0.34093690  0.96608325  0.00824004     0.18410
H1157       H  0.29553540  0.89103479  0.10862578     0.18400
N1158       N  0.24553424  0.92762284  0.07548529    -0.88310
H1159       H  0.38679936  0.91628431  0.00475894     0.35780
H1160       H  0.40190318  0.89981064  0.04354384     0.40880
H1161       H  0.24304751  0.93491763  0.10278447     0.40490
H1162       H  0.23631210  0.90154980  0.07273967     0.35380
C1163       C  0.50222021  0.78607286  0.45765425    -0.26350
C1164       C  0.50169621  0.74875723  0.45586200    -0.14420
C1165       C  0.47845719  0.73194201  0.43122610     0.36210
C1166       C  0.45831894  0.75244377  0.40742315    -0.25790
C1167       C  0.45952444  0.78979450  0.40810334    -0.15030
C1168       C  0.48069096  0.80680726  0.43462710     0.37290
N1169       N  0.48014504  0.84487356  0.43825233    -0.89290
H1170       H  0.01981679  0.79899004  0.47675436     0.18410
H1171       H  0.44236831  0.73871697  0.38741355     0.18400
N1172       N  0.47440843  0.69404657  0.42983544    -0.88310
H1173       H  0.99717382  0.85299293  0.45905619     0.35780
H1174       H  0.45475253  0.85213109  0.44620375     0.40880
H1175       H  0.46960880  0.68446073  0.45613262     0.40490
H1176       H  0.49740826  0.68265629  0.41979877     0.35380
C1177       C  0.93937152  0.30987290  0.37989604     0.03100
C1178       C  0.90631057  0.29738678  0.36844399    -0.13050
C1179       C  0.88919438  0.31252946  0.33831342     0.00600
C1180       C  0.90399065  0.34228541  0.32112886    -0.11580
C1181       C  0.93623734  0.35614467  0.33315369     0.03090
C1182       C  0.95427765  0.33922253  0.36181227    -0.11000
H1183       H  0.89437465  0.27513881  0.38253082     0.08690
H1184       H  0.89036906  0.35449583  0.29833506     0.06220
H1185       H  0.98032856  0.34838459  0.36928993     0.06060
C1186       C  0.86526269  0.38193762  0.10014737     0.03100
C1187       C  0.89682443  0.39659169  0.11381882    -0.13050
C1188       C  0.91566549  0.37944490  0.14180090     0.00600
C1189       C  0.90217365  0.34815207  0.15723929    -0.11580
C1190       C  0.87104188  0.33295710  0.14395094     0.03090
C1191       C  0.85340419  0.34917786  0.11457744    -0.11000
H1192       H  0.90508666  0.42287803  0.10505889     0.08690
H1193       H  0.91462632  0.33694924  0.18134676     0.06220
H1194       H  0.82856710  0.33811638  0.10542511     0.06060
C1195       C  0.68189967  0.38092721  0.38962320     0.03100
C1196       C  0.69380507  0.34778954  0.37640387    -0.13050
C1197       C  0.67733862  0.33161819  0.34645724     0.00600
C1198       C  0.64694515  0.34708710  0.33144694    -0.11580
C1199       C  0.63285846  0.37837436  0.34607580     0.03090
C1200       C  0.65079033  0.39552828  0.37450560    -0.11000
H1201       H  0.71780193  0.33609177  0.38709839     0.08690
H1202       H  0.63532665  0.33582432  0.30706766     0.06220
H1203       H  0.64223565  0.42192355  0.38212223     0.06060
C1204       C  0.93455019  0.14025566  0.10474796     0.03100
C1205       C  0.90352200  0.15334344  0.11970901    -0.13050
C1206       C  0.88746261  0.13611654  0.14930989     0.00600
C1207       C  0.90276725  0.10502372  0.16380977    -0.11580
C1208       C  0.93408347  0.09142717  0.14901841     0.03090
C1209       C  0.94964652  0.10918268  0.11935117    -0.11000
H1210       H  0.89322035  0.17821301  0.10923732     0.08690
H1211       H  0.89075901  0.09191611  0.18698773     0.06220
H1212       H  0.97444627  0.10002288  0.10844453     0.06060
C1213       C  0.95121728  0.38811508  0.31582459     0.42430
N1214       N  0.48321347  0.43411697  0.30691548     0.01320
C1215       C  0.98349786  0.04220171  0.15296484    -0.06560
H1216       H  0.48930709  0.41052998  0.12302705     0.06810
C1217       C  0.60905415  0.40867938  0.20475811    -0.06910
Co1218     Co  0.95995073  0.47529160  0.24060538     0.74180
N1219       N  0.48559689  0.43803592  0.17453561    -0.26090
Co1220     Co  0.52646424  0.47558652  0.17674581     0.74070
C1221       C  0.59645246  0.38990569  0.17257922     0.42530
N1222       N  0.58644169  0.43703884  0.28783600     0.00930
N1223       N  0.56444914  0.43594150  0.18088462     0.01040
N1224       N  0.93993182  0.04164822  0.19491938    -0.46930
H1225       H  0.91652634  0.40089743  0.26569382     0.06800
N1226       N  0.96135069  0.43764127  0.20008241     0.01330
N1227       N  0.56707873  0.01355603  0.17913596     0.01070
C1228       C  0.60585033  0.05328369  0.16613533     0.42670
N1229       N  0.56214603  0.43657870  0.31331275    -0.25540
C1230       C  0.93315681  0.03641253  0.28767514    -0.06460
N1231       N  0.47902662  0.40645522  0.32890270    -0.46650
N1232       N  0.57717623  0.03597956  0.15307776    -0.46870
C1233       C  0.94083746  0.05005965  0.32370232     0.42440
N1234       N  0.96258631  0.01528042  0.20047758     0.01310
N1235       N  0.55840587  0.01385167  0.31233867    -0.25560
N1236       N  0.95975191  0.43513239  0.28024668    -0.26060
N1237       N  0.58390131  0.01469038  0.28801924     0.00950
H1238       H  0.54483259  0.04770875  0.35729259     0.06840
H1239       H  0.63643329  0.04260455  0.21899668     0.06880
N1240       N  0.48816701  0.01506602  0.17621105    -0.26110
N1241       N  0.58764806  0.43664395  0.20777738    -0.25720
N1242       N  0.47992870  0.01132016  0.30979141     0.01320
C1243       C  0.94299070  0.39896548  0.16187106     0.42710
C1244       C  0.57203342  0.41271748  0.33895663    -0.06970
N1245       N  0.58868277  0.01396145  0.20731464    -0.25720
H1246       H  0.63044505  0.40237237  0.22318195     0.06860
N1247       N  0.93551756  0.41508283  0.19343067    -0.46940
H1248       H  0.55868864  0.40786762  0.36446078     0.06850
C1249       C  0.59304832  0.06034630  0.32142502     0.42550
C1250       C  0.93826089  0.40710001  0.28366523    -0.06470
Co1251     Co  0.52083733  0.47383834  0.31151938     0.73820
N1252       N  0.61258917  0.41465866  0.29434149    -0.46660
C1253       C  0.95145463  0.05981979  0.16536270     0.42820
N1254       N  0.96970241  0.03277141  0.33637248    -0.46650
Co1255     Co  0.58721231  0.47572999  0.24774355     0.73890
C1256       C  0.61360752  0.03843542  0.20181996    -0.06980
C1257       C  0.97594990  0.41468092  0.14860163    -0.06540
N1258       N  0.95829977  0.01240557  0.28162737    -0.26070
N1259       N  0.56883334  0.40840539  0.15898522    -0.46830
H1260       H  0.50017974  0.04812925  0.12994318     0.06820
C1261       C  0.56194216  0.04163622  0.33471131    -0.06950
Cl1262     Cl  0.52359059  0.47519362  0.24413795    -0.49950
C1263       C  0.60524826  0.39762422  0.32565660     0.42580
H1264       H  0.91026223  0.04090364  0.27063228     0.06790
N1265       N  0.60533507  0.04207473  0.29255836    -0.46660
C1266       C  0.61357792  0.31315776  0.10779284     0.03100
C1267       C  0.59622110  0.34079813  0.12671656    -0.13050
C1268       C  0.61287191  0.35880698  0.15530032     0.00600
C1269       C  0.64556629  0.34696962  0.16771866    -0.11580
C1270       C  0.66278799  0.31902750  0.15054603     0.03090
C1271       C  0.64814288  0.30432415  0.11894351    -0.11000
H1272       H  0.56948410  0.34827979  0.12009864     0.08690
H1273       H  0.65772188  0.35957953  0.19088504     0.06220
H1274       H  0.66388262  0.28574547  0.10377257     0.06060
C1275       C  0.86663964  0.06611754  0.38960204     0.03100
C1276       C  0.89752346  0.05165080  0.37441853    -0.13050
C1277       C  0.91475285  0.06908190  0.34565465     0.00600
C1278       C  0.90071590  0.10069315  0.33151899    -0.11580
C1279       C  0.87022948  0.11558069  0.34619067     0.03090
C1280       C  0.85398802  0.09898782  0.37603236    -0.11000
H1281       H  0.90620130  0.02527386  0.38248016     0.08690
H1282       H  0.91199467  0.11226052  0.30707300     0.06220
H1283       H  0.82944942  0.10973708  0.38615142     0.06060
C1284       C  0.61049506  0.14121918  0.38025882     0.03100
C1285       C  0.59377588  0.11146881  0.36488209    -0.13050
C1286       C  0.60960975  0.09260987  0.33641610     0.00600
C1287       C  0.64146267  0.10483010  0.32191219    -0.11580
C1288       C  0.65792606  0.13513314  0.33603264     0.03090
C1289       C  0.64276847  0.15268314  0.36572689    -0.11000
H1290       H  0.56822369  0.10337946  0.37485089     0.08690
H1291       H  0.65332324  0.09071717  0.29948249     0.06220
H1292       H  0.65569549  0.17583045  0.37709089     0.06060
C1293       C  0.68095229  0.06844942  0.10094001     0.03100
C1294       C  0.64979046  0.05439609  0.11610458    -0.13050
C1295       C  0.63230495  0.07223505  0.14421906     0.00600
C1296       C  0.64626661  0.10413802  0.15754382    -0.11580
C1297       C  0.67624667  0.11937012  0.14181043     0.03090
C1298       C  0.69246397  0.10234935  0.11237623    -0.11000
H1299       H  0.64109549  0.02789631  0.10882949     0.08690
H1300       H  0.63509527  0.11595030  0.18177803     0.06220
H1301       H  0.71610158  0.11391091  0.10094877     0.06060
C1302       C  0.85063826  0.14162880  0.32395953     0.42430
N1303       N  0.81100658  0.18022032  0.31025307     0.01320
C1304       C  0.71223568  0.17929872  0.14981755    -0.06560
H1305       H  0.84363681  0.20206004  0.13095539     0.06810
C1306       C  0.83793017  0.31492809  0.20210572    -0.06910
Co1307     Co  0.77371455  0.15999114  0.24155006     0.74180
N1308       N  0.81206413  0.18890758  0.17724127    -0.26090
Co1309     Co  0.77413332  0.22811864  0.17753043     0.74070
C1310       C  0.85259898  0.30647409  0.16664145     0.42530
N1311       N  0.81292281  0.28571184  0.28877807     0.00930
N1312       N  0.81252365  0.26821378  0.18004876     0.01040
N1313       N  0.71231238  0.13738992  0.19406031    -0.46930
H1314       H  0.84049286  0.11019999  0.27153947     0.06800
N1315       N  0.81256126  0.16269079  0.20129000     0.01330
N1316       N  0.73629871  0.26759086  0.18010390     0.01070
C1317       C  0.69490664  0.30404915  0.16711551     0.42670
N1318       N  0.81236312  0.25973421  0.31309729    -0.25540
C1319       C  0.70784312  0.13675043  0.28624301    -0.06460
N1320       N  0.83332068  0.17054042  0.33646038    -0.46650
N1321       N  0.71137180  0.27432891  0.15573948    -0.46870
C1322       C  0.69032045  0.14909820  0.31921851     0.42440
N1323       N  0.73557449  0.16264797  0.20091709     0.01310
N1324       N  0.73614715  0.26228723  0.31318963    -0.25560
N1325       N  0.81145513  0.15814309  0.28244055    -0.26060
N1326       N  0.73611761  0.28727055  0.28779945     0.00950
H1327       H  0.70772294  0.25698202  0.36385655     0.06840
H1328       H  0.70662474  0.33761189  0.21835397     0.06880
N1329       N  0.73609928  0.18771185  0.17561716    -0.26110
N1330       N  0.81317175  0.29026820  0.20786492    -0.25720
N1331       N  0.73461424  0.18259366  0.30835931     0.01320
C1332       C  0.85591870  0.15216348  0.16579400     0.42710
C1333       C  0.83907018  0.26414397  0.33647439    -0.06970
N1334       N  0.73702222  0.29092051  0.20682638    -0.25720
H1335       H  0.84248805  0.33807927  0.21886356     0.06860
N1336       N  0.83858925  0.13988152  0.19544668    -0.46940
H1337       H  0.84495139  0.24693029  0.35939043     0.06850
C1338       C  0.69649229  0.30448209  0.32545701     0.42550
C1339       C  0.83594184  0.13325163  0.28840338    -0.06470
Co1340     Co  0.77348675  0.22112379  0.31203502     0.73820
N1341       N  0.83913882  0.30827485  0.29416752    -0.46660
C1342       C  0.69592874  0.14620072  0.16269545     0.42820
N1343       N  0.70835763  0.17761564  0.33136822    -0.46650
Co1344     Co  0.77483413  0.28905529  0.24792504     0.73890
C1345       C  0.71174185  0.31499367  0.20110622    -0.06980
C1346       C  0.83830401  0.18462257  0.15376962    -0.06540
N1347       N  0.73493295  0.15912905  0.28172449    -0.26070
N1348       N  0.83490225  0.27774141  0.15405674    -0.46830
H1349       H  0.70803779  0.19356547  0.12450750     0.06820
C1350       C  0.71225898  0.27113460  0.33858380    -0.06950
Cl1351     Cl  0.77400837  0.22456770  0.24476234    -0.49950
C1352       C  0.85669816  0.29645175  0.32387970     0.42580
H1353       H  0.70150155  0.11468016  0.26862892     0.06790
N1354       N  0.71323032  0.31297260  0.29431149    -0.46660
C1355       C  0.77428830  0.47366323  0.47472200     0.00540
C1356       C  0.77294042  0.47507551  0.51204677     0.00530
C1357       C  0.52378663  0.23027495  0.01301312     0.00540
C1358       C  0.52495293  0.22800752  0.97531777     0.00530
C1359       C  0.52709089  0.22740769  0.47793956     0.00540
C1360       C  0.52741282  0.22842797  0.51530430     0.00530
C1361       C  0.76938144  0.47262341  0.01619275     0.00540
C1362       C  0.76956126  0.47309608  0.97884248     0.00530
C1363       C  0.85639977  0.39556718  0.87702346     0.03100
C1364       C  0.84183400  0.36571540  0.85961748    -0.13050
C1365       C  0.86056731  0.34772130  0.83252919     0.00600
C1366       C  0.89324407  0.36093037  0.82118356    -0.11580
C1367       C  0.90806827  0.39072812  0.83800750     0.03090
C1368       C  0.89034679  0.40672421  0.86705872    -0.11000
H1369       H  0.81566402  0.35667066  0.86669543     0.08690
H1370       H  0.90737664  0.34793211  0.79946518     0.06220
H1371       H  0.90273559  0.42830684  0.88160308     0.06060
C1372       C  0.93264449  0.13246537  0.89223543     0.03100
C1373       C  0.90046382  0.14700845  0.87934200    -0.13050
C1374       C  0.88266687  0.13165066  0.84963444     0.00600
C1375       C  0.89624420  0.10067254  0.83402646    -0.11580
C1376       C  0.92740927  0.08532255  0.84708800     0.03090
C1377       C  0.94543346  0.10112513  0.87624008    -0.11000
H1378       H  0.89159094  0.17247613  0.88956159     0.08690
H1379       H  0.88414205  0.09018484  0.80951229     0.06220
H1380       H  0.97157288  0.09164028  0.88307688     0.06060
C1381       C  0.68872792  0.05838664  0.87689592     0.03100
C1382       C  0.65544677  0.04843107  0.86371268    -0.13050
C1383       C  0.63934333  0.06746034  0.83524989     0.00600
C1384       C  0.65555300  0.09819677  0.82165469    -0.11580
C1385       C  0.68792734  0.10956495  0.83584601     0.03090
C1386       C  0.70470795  0.08920889  0.86289059    -0.11000
H1387       H  0.64233854  0.02539161  0.87518614     0.08690
H1388       H  0.64294213  0.11343827  0.80017025     0.06220
H1389       H  0.73052800  0.09690925  0.87259717     0.06060
C1390       C  0.61666073  0.32419968  0.89128185     0.03100
C1391       C  0.60836529  0.35920957  0.87945928    -0.13050
C1392       C  0.62306769  0.37352837  0.84758995     0.00600
C1393       C  0.65146849  0.35624499  0.83129600    -0.11580
C1394       C  0.66470387  0.32461665  0.84616580     0.03090
C1395       C  0.64634069  0.30794423  0.87465570    -0.11000
H1396       H  0.58899512  0.37509664  0.89274254     0.08690
H1397       H  0.66239806  0.36669514  0.80618504     0.06220
H1398       H  0.65418342  0.28107482  0.88125104     0.06060
C1399       C  0.61805535  0.13412418  0.60035336     0.03100
C1400       C  0.64830903  0.14873010  0.61686186    -0.13050
C1401       C  0.66490799  0.13130019  0.64611406     0.00600
C1402       C  0.65047487  0.09965992  0.65980330    -0.11580
C1403       C  0.62081018  0.08436877  0.64339843     0.03090
C1404       C  0.60555680  0.10089196  0.61285754    -0.11000
H1405       H  0.65698613  0.17523743  0.60938275     0.08690
H1406       H  0.66099800  0.08813305  0.68471541     0.06220
H1407       H  0.58166395  0.08977905  0.60136357     0.06060
C1408       C  0.85693724  0.06151635  0.60943687     0.03100
C1409       C  0.88992848  0.04990174  0.62182252    -0.13050
C1410       C  0.90642498  0.06594511  0.65174105     0.00600
C1411       C  0.89075660  0.09574528  0.66789319    -0.11580
C1412       C  0.85826883  0.10858401  0.65498228     0.03090
C1413       C  0.84099171  0.09053414  0.62661153    -0.11000
H1414       H  0.90214142  0.02748451  0.60854180     0.08690
H1415       H  0.90370563  0.10877894  0.69053433     0.06220
H1416       H  0.81493482  0.09866747  0.61795075     0.06060
C1417       C  0.84604649  0.31509123  0.81634204     0.42430
N1418       N  0.81455631  0.26855413  0.80867133     0.01320
C1419       C  0.81129076  0.15963193  0.65738583    -0.06560
H1420       H  0.80912701  0.29133485  0.62395780     0.06810
C1421       C  0.68842953  0.29474143  0.70501403    -0.06910
Co1422     Co  0.83752427  0.22702465  0.74320255     0.74180
N1423       N  0.81227552  0.26450003  0.67622953    -0.26090
Co1424     Co  0.77080784  0.22761423  0.67868389     0.74070
C1425       C  0.70092840  0.31340652  0.67266489     0.42530
N1426       N  0.71121035  0.26619511  0.78867809     0.00930
N1427       N  0.73317300  0.26761553  0.68194369     0.01040
N1428       N  0.85509426  0.15917013  0.69952605    -0.46930
H1429       H  0.88062878  0.30195574  0.76672091     0.06800
N1430       N  0.83664770  0.26454258  0.70188640     0.01330
N1431       N  0.72990213  0.19008854  0.68095566     0.01070
C1432       C  0.69118233  0.15034706  0.66811260     0.42670
N1433       N  0.73542676  0.26633680  0.81448005    -0.25540
C1434       C  0.86453732  0.16610297  0.79162465    -0.06460
N1435       N  0.81844373  0.29669735  0.82979803    -0.46650
N1436       N  0.71986169  0.16760626  0.65511412    -0.46870
C1437       C  0.85708538  0.15253617  0.82787651     0.42440
N1438       N  0.83386919  0.18684388  0.70380662     0.01310
N1439       N  0.73889082  0.18907131  0.81390742    -0.25560
N1440       N  0.83797867  0.26736089  0.78217491    -0.26060
N1441       N  0.71336278  0.18877263  0.78935520     0.00950
H1442       H  0.75248752  0.15407175  0.85843764     0.06840
H1443       H  0.66056488  0.16107616  0.72054665     0.06880
N1444       N  0.80822135  0.18759970  0.67938390    -0.26110
N1445       N  0.70995457  0.26691601  0.70861385    -0.25720
N1446       N  0.81772624  0.19117127  0.81298929     0.01320
C1447       C  0.85590711  0.30219044  0.66270622     0.42710
C1448       C  0.72535619  0.28985909  0.84002031    -0.06970
N1449       N  0.70831995  0.18972352  0.70891501    -0.25720
H1450       H  0.66700779  0.30097135  0.72315931     0.06860
N1451       N  0.86305853  0.28631065  0.69474530    -0.46940
H1452       H  0.73853365  0.29438048  0.86574709     0.06850
C1453       C  0.70416129  0.14245556  0.82200620     0.42550
C1454       C  0.85918179  0.29566360  0.78490037    -0.06470
Co1455     Co  0.77673679  0.22889004  0.81350597     0.73820
N1456       N  0.68495382  0.28839644  0.79485955    -0.46660
C1457       C  0.84226290  0.14072554  0.67082323     0.42820
N1458       N  0.82810169  0.16978768  0.84001916    -0.46650
Co1459     Co  0.71022274  0.22781389  0.74891457     0.73890
C1460       C  0.68336336  0.16527134  0.70350044    -0.06980
C1461       C  0.82242225  0.28726498  0.64974955    -0.06540
N1462       N  0.83927332  0.19000864  0.78497301    -0.26070
N1463       N  0.72871351  0.29508413  0.65961368    -0.46830
H1464       H  0.79398497  0.15372810  0.63476753     0.06820
C1465       C  0.73530491  0.16078704  0.83587696    -0.06950
Cl1466     Cl  0.77385463  0.22784875  0.74609083    -0.49950
C1467       C  0.69211421  0.30497177  0.82630941     0.42580
H1468       H  0.88734176  0.16152844  0.77473578     0.06790
N1469       N  0.69191748  0.16133457  0.79329281    -0.46660
C1470       C  0.93335261  0.31932845  0.60046888     0.03100
C1471       C  0.90187258  0.30462190  0.61445551    -0.13050
C1472       C  0.88335373  0.32158538  0.64249913     0.00600
C1473       C  0.89700377  0.35280094  0.65768082    -0.11580
C1474       C  0.92786951  0.36820756  0.64413104     0.03090
C1475       C  0.94511133  0.35224394  0.61463940    -0.11000
H1476       H  0.89347808  0.27830717  0.60630456     0.08690
H1477       H  0.88479595  0.36388563  0.68174115     0.06220
H1478       H  0.96946216  0.36390667  0.60505333     0.06060
C1479       C  0.68607513  0.39296884  0.61049531     0.03100
C1480       C  0.70215539  0.36340793  0.62740841    -0.13050
C1481       C  0.68531246  0.34540239  0.65589701     0.00600
C1482       C  0.65323933  0.35824751  0.66888905    -0.11580
C1483       C  0.63762048  0.38854015  0.65371166     0.03090
C1484       C  0.65356501  0.40525758  0.62382792    -0.11000
H1485       H  0.72793267  0.35465988  0.61871122     0.08690
H1486       H  0.64034865  0.34463897  0.69105040     0.06220
H1487       H  0.64106668  0.42827984  0.61145884     0.06060
C1488       C  0.94567796  0.05947564  0.82402626     0.42430
N1489       N  0.98572801  0.02168588  0.81017142     0.01320
C1490       C  0.58424454  0.02483457  0.65087999    -0.06560
H1491       H  0.95110131  0.00095491  0.63167443     0.06810
C1492       C  0.96111649  0.38670043  0.70238138    -0.06910
Co1493     Co  0.52235784  0.04315415  0.74170448     0.74180
N1494       N  0.98385313  0.01406940  0.67740946    -0.26090
Co1495     Co  0.52266724  0.47539166  0.67796700     0.74070
C1496       C  0.94635164  0.39483424  0.66663924     0.42530
N1497       N  0.98526561  0.41653204  0.78955171     0.00930
N1498       N  0.98517147  0.43431834  0.68036342     0.01040
N1499       N  0.58376633  0.06651560  0.69488795    -0.46930
H1500       H  0.95503226  0.09186903  0.77176479     0.06800
N1501       N  0.98341425  0.04005658  0.70144965     0.01330
N1502       N  0.56156331  0.43686815  0.68119886     0.01070
C1503       C  0.60541176  0.40304408  0.67018489     0.42670
N1504       N  0.98572806  0.44246276  0.81363244    -0.25540
C1505       C  0.58829942  0.06696218  0.78630237    -0.06460
N1506       N  0.96352445  0.03066355  0.83636156    -0.46650
N1507       N  0.58751271  0.43172613  0.65785611    -0.46870
C1508       C  0.60624944  0.05438801  0.81921964     0.42440
N1509       N  0.56032541  0.04130050  0.70132623     0.01310
N1510       N  0.56204764  0.44134548  0.81404288    -0.25560
N1511       N  0.98476816  0.04411731  0.78242894    -0.26060
N1512       N  0.56237816  0.41643578  0.78890478     0.00950
H1513       H  0.59123519  0.44758922  0.86433280     0.06840
H1514       H  0.59448951  0.36883050  0.72142942     0.06880
N1515       N  0.56003506  0.01638888  0.67616352    -0.26110
N1516       N  0.98509888  0.41210019  0.70832730    -0.25720
N1517       N  0.56204652  0.02077857  0.80862950     0.01320
C1518       C  0.93917679  0.05045192  0.66661930     0.42710
C1519       C  0.95899113  0.43808419  0.83675560    -0.06970
N1520       N  0.56146573  0.41342714  0.70810851    -0.25720
H1521       H  0.95721435  0.36332475  0.71921692     0.06860
N1522       N  0.95693462  0.06248339  0.69605297    -0.46940
H1523       H  0.95293131  0.45546300  0.85923588     0.06850
C1524       C  0.60322819  0.40042630  0.82639162     0.42550
C1525       C  0.95997028  0.06858385  0.78848228    -0.06470
Co1526     Co  0.52393311  0.48162985  0.81239194     0.73820
N1527       N  0.95892111  0.39404380  0.79486751    -0.46460
C1528       C  0.60051294  0.05775609  0.66397344     0.42820
N1529       N  0.58855611  0.02565779  0.83147234    -0.46650
Co1530     Co  0.52346822  0.41401309  0.74881519     0.73890
C1531       C  0.58823652  0.39089804  0.70353758    -0.06980
C1532       C  0.95696254  0.01829201  0.65429039    -0.06540
N1533       N  0.56129495  0.04443709  0.78193076    -0.26070
N1534       N  0.96318823  0.42420258  0.65411369    -0.46830
H1535       H  0.58895185  0.01049629  0.62591528     0.06820
C1536       C  0.58660992  0.43322554  0.83932358    -0.06950
Cl1537     Cl  0.52306002  0.47853162  0.74520414    -0.49950
C1538       C  0.94131009  0.40588338  0.82433255     0.42580
H1539       H  0.59449010  0.08909080  0.76850983     0.06790
N1540       N  0.58620029  0.39149956  0.79545091    -0.46660
C1541       C  0.72616057  0.97898539  0.92871803    -0.26350
C1542       C  0.74552361  0.99575631  0.95638253    -0.14420
C1543       C  0.74602769  0.03318510  0.95788269     0.36210
C1544       C  0.72594160  0.05299086  0.93290522    -0.25790
C1545       C  0.70730081  0.03625065  0.90459113    -0.15030
C1546       C  0.70818743  0.99870607  0.90205350     0.37290
N1547       N  0.69245621  0.98077054  0.87152469    -0.89290
H1548       H  0.72670577  0.45021642  0.92680098     0.18410
H1549       H  0.72590306  0.08174136  0.93502110     0.18400
N1550       N  0.76832195  0.05124904  0.98329487    -0.88310
H1551       H  0.69558597  0.45319554  0.87385937     0.35780
H1552       H  0.70612659  0.98862295  0.84816827     0.40880
H1553       H  0.75257606  0.06811024  0.99888045     0.40490
H1554       H  0.78592141  0.06708658  0.96856749     0.35380
C1555       C  0.81705910  0.47045687  0.93344924    -0.26350
C1556       C  0.79448817  0.45167419  0.95672418    -0.14420
C1557       C  0.79202759  0.41436103  0.95382358     0.36210
C1558       C  0.81375338  0.39656271  0.92896330    -0.25790
C1559       C  0.83585070  0.41541037  0.90491073    -0.15030
C1560       C  0.83658978  0.45307320  0.90665621     0.37290
N1561       N  0.85551549  0.47378016  0.88010862    -0.89290
H1562       H  0.81774416  0.49926844  0.93482779     0.18410
H1563       H  0.81271425  0.36779281  0.92788289     0.18400
N1564       N  0.76576946  0.39500394  0.97387018    -0.88310
H1565       H  0.85324542  0.50101357  0.88535206     0.35780
H1566       H  0.84364861  0.46944185  0.85477533     0.40880
H1567       H  0.77408952  0.39336503  0.00089376     0.40490
H1568       H  0.76426355  0.36873128  0.96474934     0.35380
C1569       C  0.55920109  0.15822520  0.58294785    -0.26350
C1570       C  0.59559263  0.15662714  0.57585678    -0.14420
C1571       C  0.60957106  0.17902599  0.54820976     0.36210
C1572       C  0.58746375  0.20352740  0.53042805    -0.25790
C1573       C  0.55098640  0.20417278  0.53686872    -0.15030
C1574       C  0.53673797  0.18088739  0.56315652     0.37290
N1575       N  0.49941732  0.18021799  0.56958136    -0.89290
H1576       H  0.54807780  0.14196902  0.60444870     0.18410
H1577       H  0.59870191  0.22134690  0.51030321     0.18400
N1578       N  0.64537931  0.17653746  0.53602094    -0.88310
H1579       H  0.49318548  0.16180805  0.59001054     0.35780
H1580       H  0.48722081  0.17124383  0.54575546     0.40880
H1581       H  0.65803815  0.15401230  0.54643346     0.40490
H1582       H  0.65882915  0.19913357  0.54502873     0.35380
C1583       C  0.96661537  0.25172193  0.53025436    -0.26350
C1584       C  0.00324686  0.25269828  0.53621167    -0.14420
C1585       C  0.01662526  0.27704917  0.56205032     0.36210
C1586       C  0.99357373  0.29849931  0.58189482    -0.25790
C1587       C  0.95687363  0.29772735  0.57609218    -0.15030
C1588       C  0.94352268  0.27474693  0.54881306     0.37290
N1589       N  0.90672260  0.27517885  0.53953402    -0.89290
H1590       H  0.95596033  0.23308594  0.51070674     0.18410
H1591       H  0.00478557  0.31534554  0.60275859     0.18400
N1592       N  0.55363963  0.28117349  0.56844474    -0.88310
H1593       H  0.90128122  0.25690182  0.51889101     0.35780
H1594       H  0.90091998  0.30039253  0.52891151     0.40880
H1595       H  0.56602847  0.28620404  0.54357162     0.40490
H1596       H  0.56364710  0.25771267  0.57976745     0.35380
C1597       C  0.53653505  0.28666708  0.94500630    -0.26350
C1598       C  0.54913297  0.25324901  0.95552910    -0.14420
C1599       C  0.58484802  0.24566377  0.95005588     0.36210
C1600       C  0.60671022  0.27100982  0.93308457    -0.25790
C1601       C  0.59319237  0.30279989  0.91720785    -0.15030
C1602       C  0.55662245  0.31007987  0.92387506     0.37290
N1603       N  0.53746887  0.33928597  0.90841266    -0.89290
H1604       H  0.50938475  0.29348278  0.95075467     0.18410
H1605       H  0.63438682  0.26469180  0.93189339     0.18400
N1606       N  0.59914932  0.21221040  0.96172310    -0.88310
H1607       H  0.54102685  0.34042888  0.88022823     0.35780
H1608       H  0.54386647  0.36281794  0.92187282     0.40880
H1609       H  0.62027770  0.21727678  0.97928808     0.40490
H1610       H  0.60917350  0.19934451  0.93883062     0.35380
C1611       C  0.96465402  0.18897839  0.90062432    -0.26350
C1612       C  0.95710173  0.15504941  0.91417388    -0.14420
C1613       C  0.97465801  0.14351711  0.94624462     0.36210
C1614       C  0.99827644  0.16659808  0.96416581    -0.25790
C1615       C  0.00322610  0.20218309  0.95251248    -0.15030
C1616       C  0.98717163  0.21234324  0.91891725     0.37290
N1617       N  0.99312128  0.24634780  0.90253974    -0.89290
H1618       H  0.95287674  0.19768008  0.87512823     0.18410
H1619       H  0.01169380  0.15704901  0.98840309     0.18400
N1620       N  0.96789514  0.10934952  0.96224002    -0.88310
H1621       H  0.96888594  0.25922006  0.89932767     0.35780
H1622       H  0.50395438  0.24246363  0.87672653     0.40880
H1623       H  0.97600323  0.08952535  0.94437059     0.40490
H1624       H  0.94078247  0.10683078  0.96629939     0.35380
C1625       C  0.79809381  0.03469214  0.52943649    -0.26350
C1626       C  0.79731506  0.99758070  0.53412886    -0.14420
C1627       C  0.81780170  0.98177588  0.56193139     0.36210
C1628       C  0.83695014  0.00341079  0.58570349    -0.25790
C1629       C  0.83778674  0.04058408  0.58135522    -0.15030
C1630       C  0.81926117  0.05628390  0.55163856     0.37290
N1631       N  0.82163917  0.09355544  0.54271953    -0.89290
H1632       H  0.78238233  0.04695427  0.50809897     0.18410
H1633       H  0.85089380  0.99106130  0.60826446     0.18400
N1634       N  0.81858262  0.44370337  0.56625475    -0.88310
H1635       H  0.83004231  0.09551472  0.51569932     0.35780
H1636       H  0.84137733  0.10600312  0.55779651     0.40880
H1637       H  0.83005620  0.43309235  0.54287185     0.40490
H1638       H  0.83472216  0.43631173  0.58816334     0.35380
C1639       C  0.70569233  0.45042763  0.58385926    -0.26350
C1640       C  0.70480935  0.41312679  0.58147546    -0.14420
C1641       C  0.72395040  0.39626580  0.55324727     0.36210
C1642       C  0.74603684  0.41666680  0.53097915    -0.25790
C1643       C  0.74722083  0.45387453  0.53389709    -0.15030
C1644       C  0.72580011  0.47095397  0.55978566     0.37290
N1645       N  0.72512826  0.50916087  0.56197948    -0.89290
H1646       H  0.69133556  0.46375841  0.60524334     0.18410
H1647       H  0.76227418  0.40332717  0.51108001     0.18400
N1648       N  0.72072962  0.35899080  0.54534720    -0.88310
H1649       H  0.70824357  0.51753918  0.58264679     0.35780
H1650       H  0.71460035  0.51883556  0.53750111     0.40880
H1651       H  0.69938647  0.34741206  0.55870932     0.40490
H1652       H  0.74384325  0.34632611  0.55396067     0.35380
C1653       C  0.68819457  0.02225743  0.05214596    -0.26350
C1654       C  0.70377659  0.04529643  0.07768943    -0.14420
C1655       C  0.74059241  0.04286960  0.08350156     0.36210
C1656       C  0.76080228  0.01925005  0.06287040    -0.25790
C1657       C  0.74529274  0.99637516  0.03739118    -0.15030
C1658       C  0.70809153  0.99681494  0.03323851     0.37290
N1659       N  0.68947677  0.47119945  0.01143311    -0.89290
H1660       H  0.65997007  0.02296800  0.04782277     0.18410
H1661       H  0.78906310  0.01856298  0.06709939     0.18400
N1662       N  0.75763650  0.06309813  0.11144078    -0.88310
H1663       H  0.67168449  0.45802360  0.02846785     0.35780
H1664       H  0.70634395  0.45134213  0.00216211     0.40880
H1665       H  0.77728132  0.07858609  0.09931418     0.40490
H1666       H  0.76976653  0.04534393  0.12958217     0.35380
C1667       C  0.59124086  0.19959557  0.40437000    -0.26350
C1668       C  0.59267543  0.16248124  0.40891589    -0.14420
C1669       C  0.57505946  0.14684263  0.43908413     0.36210
C1670       C  0.55411379  0.16820387  0.46149920    -0.25790
C1671       C  0.55215904  0.20525236  0.45627248    -0.15030
C1672       C  0.57186740  0.22097570  0.42800637     0.37290
N1673       N  0.57194543  0.25880961  0.42289942    -0.89290
H1674       H  0.60448474  0.21222842  0.38164246     0.18410
H1675       H  0.53904117  0.15568239  0.48301426     0.18400
N1676       N  0.57863496  0.10988022  0.44865896    -0.88310
H1677       H  0.56253534  0.26437994  0.39667748     0.35780
H1678       H  0.59798154  0.26771071  0.42455926     0.40880
H1679       H  0.59893859  0.09761942  0.43437783     0.40490
H1680       H  0.55497474  0.09710930  0.44223548     0.35380
C1681       C  0.80785558  0.04095105  0.40498761    -0.26350
C1682       C  0.84385239  0.04380096  0.41381128    -0.14420
C1683       C  0.85715463  0.02306096  0.44327426     0.36210
C1684       C  0.83469939  0.99925752  0.46153717    -0.25790
C1685       C  0.79847977  0.99750861  0.45336861    -0.15030
C1686       C  0.78519116  0.01874375  0.42474364     0.37290
N1687       N  0.74846497  0.51808777  0.41572380    -0.89290
H1688       H  0.79705691  0.05579962  0.38216207     0.18410
H1689       H  0.84553561  0.98267629  0.48304766     0.18400
N1690       N  0.89257350  0.02654242  0.45669585    -0.88310
H1691       H  0.74591327  0.51036914  0.38852938     0.35780
H1692       H  0.73858540  0.54393981  0.41812051     0.40880
H1693       H  0.90543475  0.04844718  0.44533948     0.40490
H1694       H  0.90638123  0.00354368  0.44962028     0.35380
C1695       C  0.58205280  0.23933514  0.04300390    -0.26350
C1696       C  0.55010875  0.25392125  0.03106992    -0.14420
C1697       C  0.54251307  0.28955264  0.03868851     0.36210
C1698       C  0.56597137  0.30937730  0.05996956    -0.25790
C1699       C  0.59475170  0.29305791  0.07804883    -0.15030
C1700       C  0.60256723  0.25695339  0.06923155     0.37290
N1701       N  0.62835887  0.23672551  0.08930040    -0.89290
H1702       H  0.58755617  0.21172095  0.03682273     0.18410
H1703       H  0.56016519  0.33728202  0.06363543     0.18400
N1704       N  0.51054051  0.30542741  0.02569419    -0.88310
H1705       H  0.63061366  0.21086302  0.07918471     0.35780
H1706       H  0.61930826  0.23422528  0.11604731     0.40880
H1707       H  0.51711686  0.32793110  0.01028514     0.40490
H1708       H  0.49618368  0.31395037  0.04825143     0.35380
C1709       C  0.98686999  0.17606283  0.09399762    -0.26350
C1710       C  0.95524815  0.16338632  0.08006756    -0.14420
C1711       C  0.94306397  0.17672919  0.04612407     0.36210
C1712       C  0.96437034  0.20068262  0.02632976    -0.25790
C1713       C  0.99869836  0.20978416  0.03805065    -0.15030
C1714       C  0.00785893  0.19974027  0.07452505     0.37290
N1715       N  0.53729491  0.21434292  0.09358743    -0.89290
H1716       H  0.99499174  0.16842069  0.12131953     0.18410
H1717       H  0.95415738  0.21137481  0.00099447     0.18400
N1718       N  0.90975364  0.16642093  0.03068770    -0.88310
H1719       H  0.55356690  0.19346995  0.10227452     0.35780
H1720       H  0.52810840  0.22769704  0.11659314     0.40880
H1721       H  0.89734686  0.14709905  0.04659552     0.40490
H1722       H  0.91478183  0.15435567  0.00566976     0.35380
C1723       C  0.71388954  0.45041974  0.45844384    -0.26350
C1724       C  0.75059390  0.44911934  0.45359815    -0.14420
C1725       C  0.76449835  0.42385589  0.42917225     0.36210
C1726       C  0.74181418  0.40184413  0.40938296    -0.25790
C1727       C  0.70501909  0.40289156  0.41412951    -0.15030
C1728       C  0.69117902  0.42667838  0.44025620     0.37290
N1729       N  0.65428772  0.42629177  0.44880370    -0.89290
H1730       H  0.70294050  0.46966131  0.47710511     0.18410
H1731       H  0.75339299  0.38432424  0.38943607     0.18400
N1732       N  0.80164110  0.41935540  0.42428035    -0.88310
H1733       H  0.64850362  0.44519617  0.46869293     0.35780
H1734       H  0.64854620  0.40139209  0.46016308     0.40880
H1735       H  0.81333870  0.41499061  0.44974646     0.40490
H1736       H  0.81207049  0.44245665  0.41268817     0.35380
C1737       C  0.83064045  0.44883690  0.02935776    -0.26350
C1738       C  0.79454147  0.44975262  0.03775779    -0.14420
C1739       C  0.78217571  0.42807298  0.06639284     0.36210
C1740       C  0.80562856  0.40616048  0.08574648    -0.25790
C1741       C  0.84146905  0.40384656  0.07632832    -0.15030
C1742       C  0.85374884  0.42481744  0.04665185     0.37290
N1743       N  0.88892626  0.42187033  0.03255472    -0.89290
H1744       H  0.84093575  0.46608364  0.00823995     0.18410
H1745       H  0.79553451  0.39103526  0.10862588     0.18400
N1746       N  0.74553321  0.42762305  0.07548527    -0.88310
H1747       H  0.88679837  0.41628489  0.00475897     0.35780
H1748       H  0.90190225  0.39981133  0.04354389     0.40880
H1749       H  0.74304645  0.43491792  0.10278442     0.40490
H1750       H  0.73631116  0.40154997  0.07273974     0.35380
C1751       C  0.00222025  0.28607255  0.45765418    -0.26350
C1752       C  0.00169630  0.24875691  0.45586190    -0.14420
C1753       C  0.97845737  0.23194171  0.43122589     0.36210
C1754       C  0.95831914  0.25244348  0.40742292    -0.25790
C1755       C  0.95952458  0.28979421  0.40810317    -0.15030
C1756       C  0.98069103  0.30680695  0.43462699     0.37290
N1757       N  0.98014508  0.34487324  0.43825226    -0.89290
H1758       H  0.51981677  0.29898973  0.47675435     0.18410
H1759       H  0.94236855  0.23871668  0.38741327     0.18400
N1760       N  0.97440867  0.19404625  0.42983516    -0.88310
H1761       H  0.49717381  0.35299262  0.45905616     0.35780
H1762       H  0.95475254  0.35213075  0.44620362     0.40880
H1763       H  0.96960899  0.18446036  0.45613230     0.40490
H1764       H  0.99740854  0.18265603  0.41979852     0.35380
C1765       C  0.93937140  0.80987317  0.37989619     0.03100
C1766       C  0.90631047  0.79738704  0.36844412    -0.13050
C1767       C  0.88919437  0.81252961  0.33831345     0.00600
C1768       C  0.90399068  0.84228551  0.32112883    -0.11580
C1769       C  0.93623735  0.85614481  0.33315370     0.03090
C1770       C  0.95427759  0.83922274  0.36181236    -0.11000
H1771       H  0.89437450  0.77513913  0.38253101     0.08690
H1772       H  0.89036915  0.85449586  0.29833494     0.06220
H1773       H  0.98032849  0.84838479  0.36929004     0.06060
C1774       C  0.86526353  0.88193699  0.10014730     0.03100
C1775       C  0.89682524  0.89659104  0.11381882    -0.13050
C1776       C  0.91566611  0.87944435  0.14180108     0.00600
C1777       C  0.90217412  0.84815162  0.15723956    -0.11580
C1778       C  0.87104240  0.83295663  0.14395108     0.03090
C1779       C  0.85340491  0.84917730  0.11457740    -0.11000
H1780       H  0.90508756  0.92287734  0.10505883     0.08690
H1781       H  0.91462663  0.83694888  0.18134717     0.06220
H1782       H  0.82856785  0.83811584  0.10542498     0.06060
C1783       C  0.68190047  0.88092778  0.38962341     0.03100
C1784       C  0.69380579  0.84779009  0.37640406    -0.13050
C1785       C  0.67733920  0.83161871  0.34645753     0.00600
C1786       C  0.64694570  0.84708762  0.33144733    -0.11580
C1787       C  0.63285910  0.87837492  0.34607616     0.03090
C1788       C  0.65079110  0.89552888  0.37450587    -0.11000
H1789       H  0.71780267  0.83609228  0.38709851     0.08690
H1790       H  0.63532708  0.83582478  0.30706813     0.06220
H1791       H  0.64223647  0.92192416  0.38212250     0.06060
C1792       C  0.93454994  0.64025559  0.10474800     0.03100
C1793       C  0.90352173  0.65334335  0.11970902    -0.13050
C1794       C  0.88746233  0.63611643  0.14930990     0.00600
C1795       C  0.90276698  0.60502364  0.16380980    -0.11580
C1796       C  0.93408321  0.59142712  0.14901847     0.03090
C1797       C  0.94964627  0.60918262  0.11935122    -0.11000
H1798       H  0.89322008  0.67821291  0.10923734     0.08690
H1799       H  0.89075874  0.59191602  0.18698776     0.06220
H1800       H  0.97444603  0.60002282  0.10844461     0.06060
C1801       C  0.95121738  0.88811517  0.31582456     0.42430
N1802       N  0.48321369  0.93411698  0.30691538     0.01320
C1803       C  0.98349761  0.54220172  0.15296497    -0.06560
H1804       H  0.48930764  0.91052952  0.12302723     0.06810
C1805       C  0.60905426  0.90867921  0.20475813    -0.06910
Co1806     Co  0.95995098  0.97529159  0.24060525     0.74180
N1807       N  0.48559719  0.93803581  0.17453557    -0.26090
Co1808     Co  0.52646450  0.97558646  0.17674570     0.74070
C1809       C  0.59645253  0.88990554  0.17257925     0.42530
N1810       N  0.58644198  0.93703886  0.28783600     0.00930
N1811       N  0.56444936  0.93594144  0.18088456     0.01040
N1812       N  0.93993157  0.54164825  0.19491952    -0.46930
H1813       H  0.91652645  0.90089756  0.26569380     0.06800
N1814       N  0.96135098  0.93764118  0.20008235     0.01330
N1815       N  0.56707843  0.51355612  0.17913611     0.01070
C1816       C  0.60584987  0.55328397  0.16613555     0.42670
N1817       N  0.56214633  0.93657876  0.31331276    -0.25540
C1818       C  0.93315637  0.53641231  0.28767543    -0.06460
N1819       N  0.47902677  0.90645526  0.32890265    -0.46650
N1820       N  0.57717583  0.53597976  0.15307796    -0.46870
C1821       C  0.94083691  0.55005930  0.32370269     0.42440
N1822       N  0.96258607  0.51528047  0.20047774     0.01310
N1823       N  0.55840563  0.51385169  0.31233881    -0.25560
N1824       N  0.95975212  0.93513241  0.28024660    -0.26060
N1825       N  0.58390107  0.51469041  0.28801938     0.00950
H1826       H  0.54483233  0.54770880  0.35729272     0.06840
H1827       H  0.63643290  0.54260483  0.21899687     0.06880
N1828       N  0.48816676  0.51506606  0.17621120    -0.26110
N1829       N  0.58764826  0.93664385  0.20777733    -0.25720
N1830       N  0.47992839  0.51132011  0.30979162     0.01320
C1831       C  0.94299125  0.89896502  0.16187125     0.42710
C1832       C  0.57203390  0.91271782  0.33895686    -0.06970
N1833       N  0.58868249  0.51396155  0.20731478    -0.25720
H1834       H  0.63044510  0.90237215  0.22318200     0.06860
N1835       N  0.93551799  0.91508254  0.19343074    -0.46940
H1836       H  0.55868921  0.90786815  0.36446109     0.06850
C1837       C  0.59304808  0.56034635  0.32142514     0.42550
C1838       C  0.93826104  0.90710009  0.28366519    -0.06470
Co1839     Co  0.52083758  0.97383834  0.31151926     0.73820
N1840       N  0.61258962  0.91465892  0.29434167    -0.46660
C1841       C  0.95145438  0.55981979  0.16536282     0.42820
N1842       N  0.96970195  0.53277118  0.33637280    -0.46650
Co1843     Co  0.58721256  0.97572993  0.24774346     0.73890
C1844       C  0.61360714  0.53843564  0.20182014    -0.06980
C1845       C  0.97595036  0.91468059  0.14860174    -0.06540
N1846       N  0.95829948  0.51240553  0.28162757    -0.26070
N1847       N  0.56883349  0.90840530  0.15898519    -0.46830
H1848       H  0.50017948  0.54812923  0.12994330     0.06820
C1849       C  0.56194191  0.54163625  0.33471144    -0.06950
Cl1850     Cl  0.52359085  0.97519359  0.24413785    -0.49950
C1851       C  0.60524884  0.89762471  0.32565695     0.42580
H1852       H  0.91026176  0.54090333  0.27063260     0.06790
N1853       N  0.60533482  0.54207477  0.29255849    -0.46660
C1854       C  0.61357787  0.81315753  0.10779293     0.03100
C1855       C  0.59622107  0.84079791  0.12671665    -0.13050
C1856       C  0.61287193  0.85880681  0.15530034     0.00600
C1857       C  0.64556635  0.84696952  0.16771861    -0.11580
C1858       C  0.66278802  0.81902739  0.15054601     0.03090
C1859       C  0.64814286  0.80432394  0.11894357    -0.11000
H1860       H  0.56948405  0.84827954  0.12009877     0.08690
H1861       H  0.65772200  0.85957951  0.19088492     0.06220
H1862       H  0.66388257  0.78574523  0.10377264     0.06060
C1863       C  0.86663883  0.56611711  0.38960220     0.03100
C1864       C  0.89752271  0.55165036  0.37441879    -0.13050
C1865       C  0.91475224  0.56908150  0.34565501     0.00600
C1866       C  0.90071537  0.60069279  0.33151937    -0.11580
C1867       C  0.87022890  0.61558032  0.34619092     0.03090
C1868       C  0.85398729  0.59898741  0.37603250    -0.11000
H1869       H  0.90620051  0.52527341  0.38248042     0.08690
H1870       H  0.91199425  0.61226021  0.30707345     0.06220
H1871       H  0.82944865  0.60973667  0.38615146     0.06060
C1872       C  0.61049478  0.64121932  0.38025887     0.03100
C1873       C  0.59377562  0.61146892  0.36488217    -0.13050
C1874       C  0.60960949  0.59260996  0.33641619     0.00600
C1875       C  0.64146240  0.60483022  0.32191225    -0.11580
C1876       C  0.65792578  0.63513329  0.33603268     0.03090
C1877       C  0.64276819  0.65268330  0.36572691    -0.11000
H1878       H  0.56822344  0.60337957  0.37485098     0.08690
H1879       H  0.65332298  0.59071728  0.29948256     0.06220
H1880       H  0.65569520  0.67583062  0.37709090     0.06060
C1881       C  0.68095148  0.56844991  0.10093988     0.03100
C1882       C  0.64978972  0.55439656  0.11610457    -0.13050
C1883       C  0.63230442  0.57223540  0.14421926     0.00600
C1884       C  0.64626621  0.60413829  0.15754410    -0.11580
C1885       C  0.67624617  0.61937044  0.14181056     0.03090
C1886       C  0.69246324  0.60234980  0.11237615    -0.11000
H1887       H  0.64109469  0.52789682  0.10882943     0.08690
H1888       H  0.63509503  0.61595046  0.18177845     0.06220
H1889       H  0.71610078  0.61391140  0.10094857     0.06060
C1890       C  0.85063781  0.64162851  0.32395973     0.42430
N1891       N  0.81100638  0.68022024  0.31025316     0.01320
C1892       C  0.71223545  0.67929889  0.14981764    -0.06560
H1893       H  0.84363659  0.70205992  0.13095543     0.06810
C1894       C  0.83793042  0.81492785  0.20210579    -0.06910
Co1895     Co  0.77371432  0.65999114  0.24155013     0.74180
N1896       N  0.81206395  0.68890749  0.17724133    -0.26090
Co1897     Co  0.77413327  0.72811862  0.17753048     0.74070
C1898       C  0.85259930  0.80647373  0.16664158     0.42530
N1899       N  0.81292287  0.78571181  0.28877805     0.00930
N1900       N  0.81252372  0.76821364  0.18004880     0.01040
N1901       N  0.71231204  0.63739010  0.19406040    -0.46930
H1902       H  0.84049234  0.61019971  0.27153968     0.06800
N1903       N  0.81256104  0.66269071  0.20129006     0.01330
N1904       N  0.73629878  0.76759089  0.18010391     0.01070
C1905       C  0.69490672  0.80404915  0.16711547     0.42670
N1906       N  0.81236317  0.75973420  0.31309730    -0.25540
C1907       C  0.70784285  0.63675059  0.28624306    -0.06460
N1908       N  0.83332036  0.67054023  0.33646052    -0.46650
N1909       N  0.71137187  0.77432890  0.15573948    -0.46870
C1910       C  0.69032018  0.64909837  0.31921854     0.42440
N1911       N  0.73557426  0.66264806  0.20091715     0.01310
N1912       N  0.73614722  0.76228741  0.31318969    -0.25560
N1913       N  0.81145488  0.65814300  0.28244064    -0.26060
N1914       N  0.73611771  0.78727071  0.28779949     0.00950
H1915       H  0.70772327  0.75698242  0.36385679     0.06840
H1916       H  0.70662481  0.83761193  0.21835391     0.06880
N1917       N  0.73609912  0.68771194  0.17561722    -0.26110
N1918       N  0.81317186  0.79026809  0.20786494    -0.25720
N1919       N  0.73461404  0.68259378  0.30835937     0.01320
C1920       C  0.85591844  0.65216334  0.16579402     0.42710
C1921       C  0.83907022  0.76414401  0.33647441    -0.06970
N1922       N  0.73702230  0.79092055  0.20682636    -0.25720
H1923       H  0.84248840  0.83807900  0.21886364     0.06860
N1924       N  0.83858899  0.63988139  0.19544672    -0.46940
H1925       H  0.84495141  0.74693037  0.35939049     0.06850
C1926       C  0.69649269  0.80448251  0.32545725     0.42550
C1927       C  0.83594144  0.63325140  0.28840354    -0.06470
Co1928     Co  0.77348668  0.72112384  0.31203507     0.73820
N1929       N  0.83913886  0.80827485  0.29416750    -0.46660
C1930       C  0.69592839  0.64620096  0.16269556     0.42820
N1931       N  0.70835741  0.67761579  0.33136827    -0.46650
Co1932     Co  0.77483421  0.78905531  0.24792504     0.73890
C1933       C  0.71174193  0.81499371  0.20110617    -0.06980
C1934       C  0.83830379  0.68462245  0.15376966    -0.06540
N1935       N  0.73493271  0.65912916  0.28172455    -0.26070
N1936       N  0.83490245  0.77774113  0.15405684    -0.46830
H1937       H  0.70803757  0.69356567  0.12450759     0.06820
C1938       C  0.71225923  0.77113493  0.33858398    -0.06950
Cl1939     Cl  0.77400830  0.72456771  0.24476239    -0.49950
C1940       C  0.85669819  0.79645180  0.32387969     0.42580
H1941       H  0.70150126  0.61468031  0.26862896     0.06790
N1942       N  0.71323061  0.81297290  0.29431163    -0.46660
C1943       C  0.77428944  0.97366363  0.47472211     0.00540
C1944       C  0.77294165  0.97507623  0.51204687     0.00530
C1945       C  0.52378656  0.73027473  0.01301318     0.00540
C1946       C  0.52495286  0.72800728  0.97531784     0.00530
C1947       C  0.52709080  0.72740800  0.47793964     0.00540
C1948       C  0.52741272  0.72842828  0.51530438     0.00530
C1949       C  0.76938260  0.97262325  0.01619286     0.00540
C1950       C  0.76956239  0.97309597  0.97884259     0.00530
C1951       C  0.85640055  0.89556671  0.87702359     0.03100
C1952       C  0.84183469  0.86571498  0.85961760    -0.13050
C1953       C  0.86056789  0.84772090  0.83252922     0.00600
C1954       C  0.89324463  0.86092998  0.82118348    -0.11580
C1955       C  0.90806891  0.89072770  0.83800745     0.03090
C1956       C  0.89034756  0.90672368  0.86705881    -0.11000
H1957       H  0.81566471  0.85667028  0.86669562     0.08690
H1958       H  0.90737710  0.84793180  0.79946498     0.06220
H1959       H  0.90273643  0.92830623  0.88160322     0.06060
C1960       C  0.93264420  0.63246526  0.89223556     0.03100
C1961       C  0.90046356  0.64700839  0.87934212    -0.13050
C1962       C  0.88266652  0.63165054  0.84963464     0.00600
C1963       C  0.89624375  0.60067234  0.83402675    -0.11580
C1964       C  0.92740884  0.58532235  0.84708825     0.03090
C1965       C  0.94543309  0.60112496  0.87624026    -0.11000
H1966       H  0.89159075  0.67247612  0.88956164     0.08690
H1967       H  0.88414154  0.59018459  0.80951263     0.06220
H1968       H  0.97157250  0.59164008  0.88307705     0.06060
C1969       C  0.68872730  0.55838686  0.87689560     0.03100
C1970       C  0.65544613  0.54843141  0.86371242    -0.13050
C1971       C  0.63934271  0.56746069  0.83524964     0.00600
C1972       C  0.65555245  0.59819708  0.82165439    -0.11580
C1973       C  0.68792683  0.60956517  0.83584571     0.03090
C1974       C  0.70470741  0.58920905  0.86289025    -0.11000
H1975       H  0.64233784  0.52539200  0.87518593     0.08690
H1976       H  0.64294159  0.61343860  0.80016996     0.06220
H1977       H  0.73052750  0.59690933  0.87259682     0.06060
C1978       C  0.61666070  0.82419948  0.89128194     0.03100
C1979       C  0.60836526  0.85920938  0.87945938    -0.13050
C1980       C  0.62306776  0.87352824  0.84759013     0.00600
C1981       C  0.65146864  0.85624494  0.83129627    -0.11580
C1982       C  0.66470397  0.82461658  0.84616603     0.03090
C1983       C  0.64634072  0.80794408  0.87465583    -0.11000
H1984       H  0.58899502  0.87509641  0.89274258     0.08690
H1985       H  0.66239828  0.86669515  0.80618537     0.06220
H1986       H  0.65418345  0.78107466  0.88125114     0.06060
C1987       C  0.61805495  0.63412429  0.60035348     0.03100
C1988       C  0.64830864  0.64873019  0.61686196    -0.13050
C1989       C  0.66490754  0.63130032  0.64611423     0.00600
C1990       C  0.65047433  0.59966011  0.65980354    -0.11580
C1991       C  0.62080965  0.58436894  0.64339862     0.03090
C1992       C  0.60555634  0.60089211  0.61285768    -0.11000
H1993       H  0.65698580  0.67523748  0.60938279     0.08690
H1994       H  0.66099741  0.58813328  0.68471569     0.06220
H1995       H  0.58166349  0.58977922  0.60136369     0.06060
C1996       C  0.85693551  0.56151493  0.60943798     0.03100
C1997       C  0.88992675  0.54990023  0.62182359    -0.13050
C1998       C  0.90642355  0.56594388  0.65174180     0.00600
C1999       C  0.89075535  0.59574422  0.66789380    -0.11580
C2000       C  0.85826755  0.60858295  0.65498300     0.03090
C2001       C  0.84099017  0.59053290  0.62661253    -0.11000
H2002       H  0.90213956  0.52748286  0.60854299     0.08690
H2003       H  0.90370462  0.60877810  0.69053464     0.06220
H2004       H  0.81493330  0.59866634  0.61795179     0.06060
C2005       C  0.84604692  0.81509088  0.81634205     0.42430
N2006       N  0.81455645  0.76855396  0.80867127     0.01320
C2007       C  0.81129012  0.65963148  0.65738606    -0.06560
H2008       H  0.80912711  0.79133506  0.62395795     0.06810
C2009       C  0.68842997  0.79474194  0.70501408    -0.06910
Co2010     Co  0.83752422  0.72702435  0.74320251     0.74180
N2011       N  0.81227565  0.76449987  0.67622949    -0.26090
Co2012     Co  0.77080779  0.72761422  0.67868381     0.74070
C2013       C  0.70092900  0.81340702  0.67266501     0.42530
N2014       N  0.71121045  0.76619534  0.78867804     0.00930
N2015       N  0.73317318  0.76761572  0.68194362     0.01040
N2016       N  0.85509360  0.65916949  0.69952630    -0.46930
H2017       H  0.88062917  0.80195520  0.76672095     0.06800
N2018       N  0.83664784  0.76454229  0.70188636     0.01330
N2019       N  0.72990186  0.69008870  0.68095558     0.01070
C2020       C  0.69118195  0.65034723  0.66811268     0.42670
N2021       N  0.73542685  0.76633690  0.81448001    -0.25540
C2022       C  0.86453707  0.66610268  0.79162474    -0.06460
N2023       N  0.81844404  0.79669715  0.82979800    -0.46650
N2024       N  0.71986135  0.66760635  0.65511413    -0.46870
C2025       C  0.85708509  0.65253602  0.82787664     0.42440
N2026       N  0.83386888  0.68684354  0.70380662     0.01310
N2027       N  0.73889058  0.68907142  0.81390729    -0.25560
N2028       N  0.83797882  0.76736061  0.78217487    -0.26060
N2029       N  0.71336254  0.68877288  0.78935508     0.00950
H2030       H  0.75248716  0.65407172  0.85843743     0.06840
H2031       H  0.66056459  0.66107656  0.72054673     0.06880
N2032       N  0.80822105  0.68759947  0.67938391    -0.26110
N2033       N  0.70995475  0.76691631  0.70861379    -0.25720
N2034       N  0.81772602  0.69117111  0.81298927     0.01320
C2035       C  0.85590725  0.80219040  0.66270640     0.42710
C2036       C  0.72535628  0.78985904  0.84002040    -0.06970
N2037       N  0.70831970  0.68972381  0.70891494    -0.25720
H2038       H  0.66700834  0.80097203  0.72315943     0.06860
N2039       N  0.86305866  0.78631042  0.69474539    -0.46940
H2040       H  0.73853369  0.79438024  0.86574724     0.06850
C2041       C  0.70416088  0.64245577  0.82200597     0.42550
C2042       C  0.85918212  0.79566319  0.78490037    -0.06470
Co2043     Co  0.77673674  0.72889002  0.81350590     0.73820
N2044       N  0.68495393  0.78839663  0.79485961    -0.46660
C2045       C  0.84226202  0.64072482  0.67082364     0.42820
N2046       N  0.82810143  0.66978760  0.84001921    -0.46650
Co2047     Co  0.71022268  0.72781417  0.74891449     0.73890
C2048       C  0.68336304  0.66527166  0.70350047    -0.06980
C2049       C  0.82242238  0.78726498  0.64974964    -0.06540
N2050       N  0.83927311  0.69000837  0.78497300    -0.26070
N2051       N  0.72871394  0.79508443  0.65961372    -0.46830
H2052       H  0.79398421  0.65372761  0.63476787     0.06820
C2053       C  0.73530456  0.66078711  0.83587677    -0.06950
Cl2054     Cl  0.77385458  0.72784874  0.74609076    -0.49950
C2055       C  0.69211431  0.80497178  0.82630958     0.42580
H2056       H  0.88734153  0.66152810  0.77473591     0.06790
N2057       N  0.69191714  0.66133488  0.79329263    -0.46660
C2058       C  0.93335259  0.81932880  0.60046894     0.03100
C2059       C  0.90187264  0.80462214  0.61445565    -0.13050
C2060       C  0.88335387  0.82158548  0.64249940     0.00600
C2061       C  0.89700392  0.85280103  0.65768114    -0.11580
C2062       C  0.92786956  0.86820780  0.64413121     0.03090
C2063       C  0.94511128  0.85224429  0.61463946    -0.11000
H2064       H  0.89347816  0.77830742  0.60630464     0.08690
H2065       H  0.88479619  0.86388561  0.68174156     0.06220
H2066       H  0.96946204  0.86390709  0.60505329     0.06060
C2067       C  0.68607645  0.89296987  0.61049596     0.03100
C2068       C  0.70215652  0.86340880  0.62740896    -0.13050
C2069       C  0.68531333  0.84540308  0.65589726     0.00600
C2070       C  0.65324011  0.85824812  0.66888911    -0.11580
C2071       C  0.63762143  0.88854092  0.65371189     0.03090
C2072       C  0.65356627  0.90525862  0.62382846    -0.11000
H2073       H  0.72793383  0.85466073  0.61871187     0.08690
H2074       H  0.64034917  0.84463935  0.69105014     0.06220
H2075       H  0.64106808  0.92828102  0.61145948     0.06060
C2076       C  0.94567746  0.55947546  0.82402646     0.42430
N2077       N  0.98572756  0.52168580  0.81017152     0.01320
C2078       C  0.58424407  0.52483463  0.65088011    -0.06560
H2079       H  0.95110040  0.50095414  0.63167485     0.06810
C2080       C  0.96111680  0.88670063  0.70238139    -0.06910
Co2081     Co  0.52235716  0.54315409  0.74170448     0.74180
N2082       N  0.98385252  0.51406910  0.67740952    -0.26090
Co2083     Co  0.52266769  0.97539179  0.67796693     0.74070
C2084       C  0.94635178  0.89483450  0.66663935     0.42530
N2085       N  0.98526604  0.91653201  0.78955153     0.00930
N2086       N  0.98517182  0.93431850  0.68036335     0.01040
N2087       N  0.58376560  0.56651571  0.69488800    -0.46930
H2088       H  0.95503150  0.59186881  0.77176492     0.06800
N2089       N  0.98341352  0.54005628  0.70144972     0.01330
N2090       N  0.56156372  0.93686827  0.68119872     0.01070
C2091       C  0.60541251  0.90304459  0.67018495     0.42670
N2092       N  0.98572842  0.94246273  0.81363227    -0.25540
C2093       C  0.58829869  0.56696243  0.78630225    -0.06460
N2094       N  0.96352407  0.53066343  0.83636174    -0.46650
N2095       N  0.58751329  0.93172650  0.65785610    -0.46870
C2096       C  0.60624880  0.55438834  0.81921949     0.42440
N2097       N  0.56032473  0.54130056  0.70132622     0.01310
N2098       N  0.56204795  0.94134543  0.81404286    -0.25560
N2099       N  0.98476754  0.54411718  0.78242900    -0.26060
N2100       N  0.56237855  0.91643577  0.78890471     0.00950
H2101       H  0.59123525  0.94758906  0.86433295     0.06840
H2102       H  0.59449035  0.86883096  0.72142948     0.06880
N2103       N  0.56003452  0.51638889  0.67616356    -0.26110
N2104       N  0.98509929  0.91210031  0.70832720    -0.25720
N2105       N  0.56204602  0.52077869  0.80862941     0.01320
C2106       C  0.93917565  0.55045106  0.66661975     0.42710
C2107       C  0.95899153  0.93808403  0.83675545    -0.06970
N2108       N  0.56146621  0.91342727  0.70810837    -0.25720
H2109       H  0.95721463  0.86332498  0.71921697     0.06860
N2110       N  0.95693358  0.56248275  0.69605326    -0.46940
H2111       H  0.95293171  0.95546276  0.85923579     0.06850
C2112       C  0.60322836  0.90042619  0.82639175     0.42550
C2113       C  0.95996962  0.56858365  0.78848241    -0.06470
Co2114     Co  0.52393349  0.98162982  0.81239188     0.73820
N2115       N  0.95892165  0.89404364  0.79486735    -0.46460
C2116       C  0.60051235  0.55775623  0.66397357     0.42820
N2117       N  0.58855561  0.52565804  0.83147222    -0.46650
Co2118     Co  0.52346867  0.91401314  0.74881505     0.73890
C2119       C  0.58823720  0.89089839  0.70353755    -0.06980
C2120       C  0.95696169  0.51829138  0.65429068    -0.06540
N2121       N  0.56129431  0.54443722  0.78193069    -0.26070
N2122       N  0.96318841  0.92420281  0.65411372    -0.46830
H2123       H  0.58895152  0.51049632  0.62591544     0.06820
C2124       C  0.58661010  0.93322542  0.83932367    -0.06950
Cl2125     Cl  0.52306049  0.97853168  0.74520408    -0.49950
C2126       C  0.94131061  0.90588313  0.82433241     0.42580
H2127       H  0.59448925  0.58909109  0.76850970     0.06790
N2128       N  0.58620060  0.89149950  0.79545093    -0.46660
C2129       C  0.72615952  0.47898555  0.92871787    -0.26350
C2130       C  0.74552254  0.49575644  0.95638240    -0.14420
C2131       C  0.74602677  0.53318524  0.95788249     0.36210
C2132       C  0.72594084  0.55299103  0.93290495    -0.25790
C2133       C  0.70730008  0.53625085  0.90459083    -0.15030
C2134       C  0.70818656  0.49870626  0.90205325     0.37290
N2135       N  0.69245537  0.48077076  0.87152439    -0.89290
H2136       H  0.72670691  0.95021627  0.92680110     0.18410
H2137       H  0.72590239  0.58174154  0.93502078     0.18400
N2138       N  0.76832107  0.55124913  0.98329468    -0.88310
H2139       H  0.69558691  0.95319533  0.87385963     0.35780
H2140       H  0.70612587  0.48862310  0.84816801     0.40880
H2141       H  0.75257521  0.56811044  0.99888018     0.40490
H2142       H  0.78592062  0.56708655  0.96856731     0.35380
C2143       C  0.81706017  0.97045658  0.93344931    -0.26350
C2144       C  0.79448921  0.95167400  0.95672429    -0.14420
C2145       C  0.79202852  0.91436083  0.95382374     0.36210
C2146       C  0.81375423  0.89656241  0.92896346    -0.25790
C2147       C  0.83585158  0.91540999  0.90491085    -0.15030
C2148       C  0.83659078  0.95307282  0.90665629     0.37290
N2149       N  0.85551653  0.97377969  0.88010867    -0.89290
H2150       H  0.81774531  0.99926815  0.93482783     0.18410
H2151       H  0.81271500  0.86779252  0.92788308     0.18400
N2152       N  0.76577035  0.89500385  0.97387038    -0.88310
H2153       H  0.85324655  0.00101312  0.88535208     0.35780
H2154       H  0.84364962  0.96944141  0.85477539     0.40880
H2155       H  0.77409054  0.89336475  0.00089391     0.40490
H2156       H  0.76426423  0.86873123  0.96474943     0.35380
C2157       C  0.55920076  0.65822544  0.58294795    -0.26350
C2158       C  0.59559230  0.65662727  0.57585687    -0.14420
C2159       C  0.60957079  0.67902607  0.54820984     0.36210
C2160       C  0.58746357  0.70352755  0.53042814    -0.25790
C2161       C  0.55098622  0.70417305  0.53686882    -0.15030
C2162       C  0.53673771  0.68088770  0.56315662     0.37290
N2163       N  0.49941706  0.68021843  0.56958146    -0.89290
H2164       H  0.54807743  0.64196930  0.60444880     0.18410
H2165       H  0.59870178  0.72134701  0.51030330     0.18400
N2166       N  0.64537903  0.67653742  0.53602102    -0.88310
H2167       H  0.49318517  0.66180851  0.59001065     0.35780
H2168       H  0.48722052  0.67124430  0.54575557     0.40880
H2169       H  0.65803780  0.65401223  0.54643355     0.40490
H2170       H  0.65882895  0.69913349  0.54502878     0.35380
C2171       C  0.96661529  0.75172231  0.53025441    -0.26350
C2172       C  0.00324678  0.75269863  0.53621172    -0.14420
C2173       C  0.01662521  0.77704955  0.56205033     0.36210
C2174       C  0.99357370  0.79849972  0.58189481    -0.25790
C2175       C  0.95687359  0.79772776  0.57609219    -0.15030
C2176       C  0.94352262  0.77474735  0.54881308     0.37290
N2177       N  0.90672254  0.77517930  0.53953404    -0.89290
H2178       H  0.95596023  0.73308630  0.51070681     0.18410
H2179       H  0.00478555  0.81534596  0.60275857     0.18400
N2180       N  0.55363958  0.78117385  0.56844473    -0.88310
H2181       H  0.90128115  0.75690227  0.51889104     0.35780
H2182       H  0.90091994  0.80039298  0.52891153     0.40880
H2183       H  0.56602841  0.78620438  0.54357159     0.40490
H2184       H  0.56364704  0.75771302  0.57976744     0.35380
C2185       C  0.53653499  0.78666684  0.94500634    -0.26350
C2186       C  0.54913291  0.75324877  0.95552916    -0.14420
C2187       C  0.58484797  0.74566353  0.95005595     0.36210
C2188       C  0.60671017  0.77100958  0.93308461    -0.25790
C2189       C  0.59319231  0.80279965  0.91720789    -0.15030
C2190       C  0.55662239  0.81007962  0.92387510     0.37290
N2191       N  0.53746881  0.83928570  0.90841266    -0.89290
H2192       H  0.50938468  0.79348252  0.95075468     0.18410
H2193       H  0.63438676  0.76469156  0.93189343     0.18400
N2194       N  0.59914927  0.71221017  0.96172318    -0.88310
H2195       H  0.54102681  0.84042861  0.88022824     0.35780
H2196       H  0.54386636  0.86281768  0.92187283     0.40880
H2197       H  0.62027764  0.71727657  0.97928816     0.40490
H2198       H  0.60917346  0.69934427  0.93883071     0.35380
C2199       C  0.96465394  0.68897818  0.90062435    -0.26350
C2200       C  0.95710150  0.65504926  0.91417399    -0.14420
C2201       C  0.97465772  0.64351697  0.94624477     0.36210
C2202       C  0.99827620  0.66659789  0.96416594    -0.25790
C2203       C  0.00322600  0.70218286  0.95251254    -0.15030
C2204       C  0.98717165  0.71234298  0.91891724     0.37290
N2205       N  0.99312151  0.74634744  0.90253960    -0.89290
H2206       H  0.95287673  0.69767985  0.87512822     0.18410
H2207       H  0.01169351  0.65704881  0.98840325     0.18400
N2208       N  0.96789472  0.60934942  0.96224021    -0.88310
H2209       H  0.96888625  0.75921983  0.89932743     0.35780
H2210       H  0.50395461  0.74246313  0.87672644     0.40880
H2211       H  0.97600275  0.58952520  0.94437083     0.40490
H2212       H  0.94078204  0.60683078  0.96629957     0.35380
C2213       C  0.79809256  0.53469126  0.52943699    -0.26350
C2214       C  0.79731372  0.49757980  0.53412911    -0.14420
C2215       C  0.81779999  0.48177480  0.56193182     0.36210
C2216       C  0.83694823  0.50340955  0.58570427    -0.25790
C2217       C  0.83778500  0.54058284  0.58135619    -0.15030
C2218       C  0.81925974  0.55628285  0.55163942     0.37290
N2219       N  0.82163792  0.59355443  0.54272058    -0.89290
H2220       H  0.78238131  0.54695354  0.50809939     0.18410
H2221       H  0.85089166  0.49105991  0.60826532     0.18400
N2222       N  0.81858446  0.94370448  0.56625449    -0.88310
H2223       H  0.83004124  0.59551380  0.51570043     0.35780
H2224       H  0.84137604  0.60600198  0.55779772     0.40880
H2225       H  0.83005779  0.93309337  0.54287150     0.40490
H2226       H  0.83472427  0.93631298  0.58816292     0.35380
C2227       C  0.70569399  0.95042860  0.58385998    -0.26350
C2228       C  0.70481081  0.91312777  0.58147616    -0.14420
C2229       C  0.72395171  0.89626671  0.55324790     0.36210
C2230       C  0.74603811  0.91666762  0.53097965    -0.25790
C2231       C  0.74722220  0.95387535  0.53389751    -0.15030
C2232       C  0.72580174  0.97095486  0.55978627     0.37290
N2233       N  0.72513008  0.00916177  0.56198014    -0.89290
H2234       H  0.69133735  0.96375942  0.60524412     0.18410
H2235       H  0.76227531  0.90332791  0.51108044     0.18400
N2236       N  0.72073079  0.85899171  0.54534785    -0.88310
H2237       H  0.70824558  0.01754014  0.58264759     0.35780
H2238       H  0.71460204  0.01883653  0.53750185     0.40880
H2239       H  0.69938756  0.84741308  0.55870991     0.40490
H2240       H  0.74384435  0.84632693  0.55396137     0.35380
C2241       C  0.68819357  0.52225789  0.05214581    -0.26350
C2242       C  0.70377568  0.54529692  0.07768920    -0.14420
C2243       C  0.74059151  0.54287005  0.08350122     0.36210
C2244       C  0.76080129  0.51925038  0.06287012    -0.25790
C2245       C  0.74529165  0.49637543  0.03739103    -0.15030
C2246       C  0.70809044  0.49681531  0.03323839     0.37290
N2247       N  0.68947796  0.97119908  0.01143316    -0.89290
H2248       H  0.65996906  0.52296851  0.04782268     0.18410
H2249       H  0.78906212  0.51856328  0.06709905     0.18400
N2250       N  0.75763572  0.56309867  0.11144031    -0.88310
H2251       H  0.67168567  0.95802316  0.02846785     0.35780
H2252       H  0.70634519  0.95134180  0.00216218     0.40880
H2253       H  0.77728053  0.57858653  0.09931357     0.40490
H2254       H  0.76976578  0.54534451  0.12958174     0.35380
C2255       C  0.59124063  0.69959575  0.40437001    -0.26350
C2256       C  0.59267516  0.66248142  0.40891592    -0.14420
C2257       C  0.57505920  0.64684285  0.43908419     0.36210
C2258       C  0.55411360  0.66820412  0.46149928    -0.25790
C2259       C  0.55215890  0.70525262  0.45627255    -0.15030
C2260       C  0.57186723  0.72097591  0.42800640     0.37290
N2261       N  0.57194531  0.75880983  0.42289943    -0.89290
H2262       H  0.60448448  0.71222857  0.38164244     0.18410
H2263       H  0.53904099  0.65568268  0.48301437     0.18400
N2264       N  0.57863467  0.60988043  0.44865904    -0.88310
H2265       H  0.56253518  0.76438015  0.39667751     0.35780
H2266       H  0.59798143  0.76771089  0.42455922     0.40880
H2267       H  0.59893829  0.59761961  0.43437792     0.40490
H2268       H  0.55497444  0.59710953  0.44223558     0.35380
C2269       C  0.80785470  0.54095066  0.40498762    -0.26350
C2270       C  0.84385149  0.54380056  0.41381140    -0.14420
C2271       C  0.85715361  0.52306063  0.44327450     0.36210
C2272       C  0.83469828  0.49925725  0.46153740    -0.25790
C2273       C  0.79847870  0.49750831  0.45336868    -0.15030
C2274       C  0.78519020  0.51874341  0.42474362     0.37290
N2275       N  0.74846590  0.01808811  0.41572398    -0.89290
H2276       H  0.79705613  0.55579919  0.38216201     0.18410
H2277       H  0.84553442  0.48267605  0.48304795     0.18400
N2278       N  0.89257244  0.52654208  0.45669619    -0.88310
H2279       H  0.74591409  0.01036954  0.38852955     0.35780
H2280       H  0.73858633  0.04394014  0.41812079     0.40880
H2281       H  0.90543376  0.54844678  0.44533978     0.40490
H2282       H  0.90638015  0.50354329  0.44962075     0.35380
C2283       C  0.58205272  0.73933490  0.04300400    -0.26350
C2284       C  0.55010868  0.75392102  0.03106999    -0.14420
C2285       C  0.54251300  0.78955241  0.03868860     0.36210
C2286       C  0.56597130  0.80937705  0.05996968    -0.25790
C2287       C  0.59475163  0.79305767  0.07804895    -0.15030
C2288       C  0.60256715  0.75695314  0.06923166     0.37290
N2289       N  0.62835879  0.73672526  0.08930052    -0.89290
H2290       H  0.58755610  0.71172071  0.03682282     0.18410
H2291       H  0.56016511  0.83728178  0.06363556     0.18400
N2292       N  0.51054046  0.80542719  0.02569426    -0.88310
H2293       H  0.63061356  0.71086277  0.07918483     0.35780
H2294       H  0.61930817  0.73422505  0.11604744     0.40880
H2295       H  0.51711683  0.82793088  0.01028522     0.40490
H2296       H  0.49618361  0.81395015  0.04825149     0.35380
C2297       C  0.98686980  0.67606268  0.09399767    -0.26350
C2298       C  0.95524792  0.66338625  0.08006762    -0.14420
C2299       C  0.94306376  0.67672918  0.04612414     0.36210
C2300       C  0.96437019  0.70068256  0.02632983    -0.25790
C2301       C  0.99869825  0.70978399  0.03805071    -0.15030
C2302       C  0.00785880  0.69974005  0.07452510     0.37290
N2303       N  0.53729483  0.71434262  0.09358747    -0.89290
H2304       H  0.99499153  0.66842050  0.12131958     0.18410
H2305       H  0.95415726  0.71137478  0.00099455     0.18400
N2306       N  0.90975340  0.66642101  0.03068777    -0.88310
H2307       H  0.55356675  0.69346959  0.10227454     0.35780
H2308       H  0.52810838  0.72769676  0.11659320     0.40880
H2309       H  0.89734658  0.64709914  0.04659557     0.40490
H2310       H  0.91478156  0.65435577  0.00566981     0.35380
C2311       C  0.71389061  0.95042011  0.45844420    -0.26350
C2312       C  0.75059495  0.94911967  0.45359843    -0.14420
C2313       C  0.76449931  0.92385620  0.42917248     0.36210
C2314       C  0.74181507  0.90184454  0.40938317    -0.25790
C2315       C  0.70501998  0.90289207  0.41412972    -0.15030
C2316       C  0.69118000  0.92667887  0.44025649     0.37290
N2317       N  0.65428870  0.92629237  0.44880400    -0.89290
H2318       H  0.70294164  0.96966167  0.47710552     0.18410
H2319       H  0.75339381  0.88432464  0.38943624     0.18400
N2320       N  0.80164204  0.91935561  0.42428054    -0.88310
H2321       H  0.64850467  0.94519673  0.46869329     0.35780
H2322       H  0.64854710  0.90139267  0.46016332     0.40880
H2323       H  0.81333966  0.91499079  0.44974663     0.40490
H2324       H  0.81207149  0.94245683  0.41268833     0.35380
C2325       C  0.83064154  0.94883651  0.02935782    -0.26350
C2326       C  0.79454257  0.94975236  0.03775787    -0.14420
C2327       C  0.78217674  0.92807268  0.06639285     0.36210
C2328       C  0.80562950  0.90616003  0.08574641    -0.25790
C2329       C  0.84146997  0.90384600  0.07632824    -0.15030
C2330       C  0.85374985  0.92481691  0.04665183     0.37290
N2331       N  0.88892726  0.92186970  0.03255470    -0.89290
H2332       H  0.84093689  0.96608325  0.00824004     0.18410
H2333       H  0.79553540  0.89103480  0.10862578     0.18400
N2334       N  0.74553424  0.92762284  0.07548529    -0.88310
H2335       H  0.88679935  0.91628431  0.00475894     0.35780
H2336       H  0.90190317  0.89981065  0.04354384     0.40880
H2337       H  0.74304751  0.93491763  0.10278447     0.40490
H2338       H  0.73631210  0.90154980  0.07273967     0.35380
C2339       C  0.00222020  0.78607286  0.45765425    -0.26350
C2340       C  0.00169621  0.74875723  0.45586200    -0.14420
C2341       C  0.97845719  0.73194201  0.43122609     0.36210
C2342       C  0.95831894  0.75244378  0.40742315    -0.25790
C2343       C  0.95952444  0.78979450  0.40810334    -0.15030
C2344       C  0.98069096  0.80680726  0.43462710     0.37290
N2345       N  0.98014504  0.84487356  0.43825234    -0.89290
H2346       H  0.51981679  0.79899004  0.47675436     0.18410
H2347       H  0.94236831  0.73871697  0.38741355     0.18400
N2348       N  0.97440843  0.69404657  0.42983544    -0.88310
H2349       H  0.49717382  0.85299293  0.45905619     0.35780
H2350       H  0.95475252  0.85213109  0.44620375     0.40880
H2351       H  0.96960880  0.68446073  0.45613261     0.40490
H2352       H  0.99740826  0.68265629  0.41979877     0.35380
loop_ 
_geom_bond_atom_site_label_1 
_geom_bond_atom_site_label_2 
_geom_bond_distance 
_geom_bond_site_symmetry_2 
_ccdc_geom_bond_type 
C1            C2   1.404       .  A
C1            C6   1.405       .  A
C1          C579   1.487       .  S
C2            C3   1.399       .  A
C2            H7   1.081       .  S
C3            C4   1.400       .  A
C3          C176   1.472       .  S
C4            C5   1.401       .  A
C4            H8   1.082       .  S
C5            C6   1.403       .  A
C5           C37   1.472       .  S
C6            H9   1.082       .  S
C10          C11   1.411       .  A
C10          C15   1.412       .  A
C10         C565   1.498       .  S
C11          C12   1.403       .  A
C11          H16   1.084       .  S
C12          C13   1.400       .  A
C12          C67   1.469       .  S
C13          C14   1.400       .  A
C13          H17   1.085       .  S
C14          C15   1.404       .  A
C14         C134   1.473       .  S
C15          H18   1.084       .  S
C19          C20   1.414       .  A
C19          C24   1.413       .  A
C19         C551   1.504       .  S
C20          C21   1.404       .  A
C20          H25   1.083       .  S
C21          C22   1.402       .  A
C21         C162   1.475       .  S
C22          C23   1.402       .  A
C22          H26   1.084       .  S
C23          C24   1.404       .  A
C23          C87   1.474       .  S
C24          H27   1.082       .  S
C28          C29   1.393       .  A
C28          C33   1.403       .  A
C28         C534   1.481       .  S
C29          C30   1.404       .  A
C29          H34   1.081       .  S
C30          C31   1.406       .  A
C30         C156   1.475       .  S
C31          C32   1.407       .  A
C31          H35   1.083       .  S
C32          C33   1.407       .  A
C32          C77   1.481       .  S
C33          H36   1.082       .  S
C37          C74   1.460       .  S
C37        N1231   1.349       .  A
N38          N55   1.323       .  A
N38        N1236   1.322       .  A
N38         Co75   2.073   1_655  S
C39          C77   1.461       .  S
C39        H1260   1.081       .  S
C39        N1240   1.337       .  A
H40        C1257   1.081       .  S
C41          C45   1.459       .  S
C41          H70   1.080       .  S
C41          N65   1.334       .  A
Co42         N60   2.091       .  S
Co42         N50   2.060       .  S
Co42        N670   2.060       .  S
Co42        N646   2.101       .  S
Co42      Cl1262   2.420       .  S
N43        C1257   1.348       .  A
N43        N1226   1.318       .  A
N43         Co44   2.099   1_655  S
Co44         N47   2.078       .  S
Co44        N652   2.077   1_455  S
Co44        N639   2.103       .  S
Co44        Cl86   2.478       .  S
C45          C92   1.472       .  S
C45          N83   1.351       .  A
N46          N53   1.317       .  A
N46          N76   1.321       .  A
N46         Co79   2.064       .  S
N47          N65   1.321       .  A
N47          N83   1.325       .  A
N48          C77   1.353       .  A
N48          N58   1.326       .  A
H49          C74   1.081       .  S
N50          N71   1.319       .  A
N50        N1219   1.318       .  A
N51          N69   1.318       .  A
N51          N56   1.329       .  A
N51        Co632   2.103   1_545  S
C52          C80   1.450       .  S
C52         C119   1.471       .  S
C52          N56   1.356       .  A
N53          C68   1.349       .  A
N53         Co75   2.103       .  S
C54          C57   1.450       .  S
C54          H88   1.082       .  S
C54          N82   1.334       .  A
N55        C1213   1.349       .  A
C57         C101   1.468       .  S
C57          N78   1.354       .  A
N58        N1240   1.321       .  A
N58        Co630   2.101   1_545  S
N59          C85   1.338       .  A
N59          N61   1.320       .  A
N59        Co663   2.073   1_545  S
N60          C74   1.338       .  A
N60        N1214   1.322       .  A
N61          N89   1.323       .  A
N61        Co667   2.091   1_545  S
H62          C85   1.081       .  S
H63          C80   1.082       .  S
N64        C1215   1.337       .  A
N64        N1234   1.321       .  A
N64        Co632   2.077   1_645  S
N65         Co79   2.082       .  S
N66        N1254   1.329       .  A
N66        N1258   1.318       .  A
N66        Co663   2.097   1_645  S
C67          C81   1.468       .  S
C67          N71   1.342       .  A
C68          C87   1.470       .  S
C68          H72   1.082       .  S
N69          C80   1.335       .  A
N69        Co667   2.061   1_545  S
C73          C85   1.459       .  S
C73         C110   1.474       .  S
C73          N89   1.351       .  A
Co75        N647   2.073       .  S
Co75        N654   2.097   1_455  S
Co75        Cl86   2.477       .  S
N76          C87   1.343       .  A
N78        N1242   1.329       .  A
Co79        N649   2.091       .  S
Co79        N657   2.061       .  S
Co79        Cl86   2.420       .  S
C81        H1216   1.081       .  S
C81        N1219   1.348       .  A
N82        N1242   1.318       .  A
N82        Co630   2.060   1_545  S
H84        C1215   1.081   1_455  S
Cl86      Co1218   2.420   1_455  S
C90          C91   1.417       .  A
C90          C95   1.412       .  A
C90         C523   1.509       .  S
C91          C92   1.401       .  A
C91          H96   1.080       .  S
C92          C93   1.393       .  A
C93          C94   1.392       .  A
C93          H97   1.078       .  S
C94          C95   1.401       .  A
C94         C141   1.471       .  S
C95          H98   1.078       .  S
C99         C100   1.411       .  A
C99         C104   1.412       .  A
C99         C506   1.497       .  S
C100        C101   1.404       .  A
C100        H105   1.084       .  S
C101        C102   1.398       .  A
C102        C103   1.397       .  A
C102        H106   1.085       .  S
C103        C104   1.403       .  A
C103        C126   1.471       .  S
C104        H107   1.084       .  S
C108        C109   1.405       .  A
C108        C113   1.406       .  A
C108        C492   1.490       .  S
C109        C110   1.404       .  A
C109        H114   1.082       .  S
C110        C111   1.400       .  A
C111        C112   1.400       .  A
C111        H115   1.082       .  S
C112        C113   1.403       .  A
C112        C146   1.474       .  S
C113        H116   1.083       .  S
C117        C118   1.412       .  A
C117        C122   1.412       .  A
C117        C478   1.501       .  S
C118        C119   1.404       .  A
C118        H123   1.083       .  S
C119        C120   1.401       .  A
C120        C121   1.400       .  A
C120        H124   1.085       .  S
C121        C122   1.404       .  A
C121        C166   1.472       .  S
C122        H125   1.083       .  S
C126        C163   1.454       .  S
C126        N144   1.353       .  A
N127        N144   1.329       .  A
N127        N149   1.319       .  A
N127       Co164   2.097       .  S
C128        C166   1.466       .  S
C128        H173   1.082       .  S
C128        N153   1.347       .  A
H129        C170   1.081       .  S
C130        C134   1.456       .  S
C130        H159   1.082       .  S
C130        N154   1.337       .  A
Co131       N149   2.072       .  S
Co131       N139   2.095       .  S
Co131       N171   2.090       .  S
Co131       N147   2.077       .  S
Co131      Cl175   2.430       .  S
N132        C170   1.331       .  A
N132        N139   1.319       .  A
N132       Co133   2.060       .  S
Co133       N136   2.099       .  S
Co133       N153   2.097       .  S
Co133       N140   2.068       .  S
Co133      Cl175   2.472       .  S
C134        N172   1.354       .  A
N135        N142   1.319       .  A
N135        N165   1.323       .  A
N135       Co168   2.083       .  S
N136        N154   1.319       .  A
N136        N172   1.329       .  A
N137        C166   1.346       .  A
N137        N147   1.321       .  A
H138        C163   1.082       .  S
N139        N160   1.327       .  A
N140        N158   1.320       .  A
N140        N145   1.323       .  A
C141        C169   1.461       .  S
C141        N145   1.349       .  A
N142        C157   1.337       .  A
N142       Co164   2.070       .  S
C143        C146   1.462       .  S
C143        H177   1.081       .  S
C143        N171   1.339       .  A
C146        N167   1.349       .  A
N147        N153   1.319       .  A
N148        C174   1.347       .  A
N148        N150   1.319       .  A
N148       Co164   2.099       .  S
N149        C163   1.335       .  A
N150        N178   1.323       .  A
N150       Co168   2.081       .  S
H151        C174   1.082       .  S
H152        C169   1.081       .  S
N154       Co168   2.075       .  S
N155        N167   1.323       .  A
N155        N171   1.321       .  A
N155       Co164   2.072       .  S
C156        C170   1.456       .  S
C156        N160   1.354       .  A
C157        C176   1.460       .  S
C157        H161   1.081       .  S
N158        C169   1.334       .  A
N158       Co168   2.080       .  S
C162        C174   1.467       .  S
C162        N178   1.348       .  A
Co164      Cl175   2.473       .  S
N165        C176   1.349       .  A
Co168      Cl175   2.426       .  S
C179        C180   1.373       .  D
C179        C548   1.505       .  S
C179       C1097   1.503       .  S
C180        C467   1.494       .  S
C180       C1038   1.494       .  S
C181        C182   1.388   1_554  D
C181        C520   1.493       .  S
C181       C1713   1.532   1_455  S
C182        C422   1.506       .  S
C182       C1615   1.525       .  S
C183        C184   1.373       .  D
C183        C495   1.499       .  S
C183       C1752   1.489       .  S
C184        C397   1.498       .  S
C184       C1584   1.509       .  S
C185        C186   1.372   1_554  D
C185        C562   1.505       .  S
C185       C1069   1.501       .  S
C186        C380   1.489       .  S
C186        C954   1.491       .  S
C187        C188   1.406       .  A
C187        C192   1.405       .  A
C187        C383   1.493       .  S
C188        C189   1.402       .  A
C188        H193   1.083       .  S
C189        C190   1.401       .  A
C189        C241   1.472       .  S
C190        C191   1.399       .  A
C190        H194   1.082       .  S
C191        C192   1.402       .  A
C191        C362   1.474       .  S
C192        H195   1.080       .  S
C196        C197   1.417       .  A
C196        C201   1.406       .  A
C196        C436   1.494       .  S
C197        C198   1.407       .  A
C197        H202   1.084       .  S
C198        C199   1.400       .  A
C198        C261   1.478       .  S
C199        C200   1.398       .  A
C199        H203   1.085       .  S
C200        C201   1.403       .  A
C200        C312   1.468       .  S
C201        H204   1.083       .  S
C205        C206   1.403       .  A
C205        C210   1.404       .  A
C205        C369   1.486       .  S
C206        C207   1.401       .  A
C206        H211   1.083       .  S
C207        C208   1.399       .  A
C207        C332   1.471       .  S
C208        C209   1.401       .  A
C208        H212   1.082       .  S
C209        C210   1.401       .  A
C209        C277   1.470       .  S
C210        H213   1.082       .  S
C214        C215   1.418       .  A
C214        C219   1.424       .  A
C214        C425   1.532       .  S
C215        C216   1.403       .  A
C215        H220   1.069       .  S
C216        C217   1.398       .  A
C216        C348   1.477       .  S
C217        C218   1.398       .  A
C217        H221   1.085       .  S
C218        C219   1.405       .  A
C218        C291   1.474       .  S
C219        H222   1.078       .  S
C223        C224   1.409       .  A
C223        C228   1.411       .  A
C223        C394   1.495       .  S
C224        C225   1.402       .  A
C224        H229   1.083       .  S
C225        C226   1.401       .  A
C225        C256   1.470       .  S
C226        C227   1.400       .  A
C226        H230   1.085       .  S
C227        C228   1.402       .  A
C227        C352   1.470       .  S
C228        H231   1.084       .  S
C232        C233   1.400       .  A
C232        C237   1.401       .  A
C232        C453   1.488       .  S
C233        C234   1.402       .  A
C233        H238   1.081       .  S
C234        C235   1.404       .  A
C234        C342   1.475       .  S
C235        C236   1.404       .  A
C235        H239   1.083       .  S
C236        C237   1.406       .  A
C236        C281   1.475       .  S
C237        H240   1.082       .  S
C241        C278   1.459       .  S
C241        N259   1.350       .  A
N242        N259   1.323       .  A
N242        N264   1.322       .  A
N242       Co279   2.077       .  S
C243        C281   1.457       .  S
C243        H288   1.081       .  S
C243        N268   1.334       .  A
H244        C285   1.081       .  S
C245        C249   1.457       .  S
C245        H274   1.080       .  S
C245        N269   1.333       .  A
Co246       N264   2.090       .  S
Co246       N254   2.065       .  S
Co246       N286   2.066       .  S
Co246       N262   2.101       .  S
Co246      Cl290   2.421       .  S
N247        C285   1.349       .  A
N247        N254   1.318       .  A
N247       Co248   2.100       .  S
Co248       N251   2.078       .  S
Co248       N268   2.068       .  S
Co248       N255   2.100       .  S
Co248      Cl290   2.478       .  S
C249        C305   1.471       .  S
C249        N287   1.351       .  A
N250        N257   1.318       .  A
N250        N280   1.321       .  A
N250       Co283   2.058       .  S
N251        N269   1.321       .  A
N251        N287   1.325       .  A
N252        C281   1.354       .  A
N252        N262   1.326       .  A
H253        C278   1.081       .  S
N254        N275   1.321       .  A
N255        N273   1.317       .  A
N255        N260   1.329       .  A
C256        C284   1.450       .  S
C256        N260   1.355       .  A
N257        C272   1.349       .  A
N257       Co279   2.108       .  S
C258        C261   1.452       .  S
C258        H292   1.082       .  S
C258        N286   1.335       .  A
C261        N282   1.356       .  A
N262        N268   1.321       .  A
N263        C289   1.338       .  A
N263        N265   1.321       .  A
N263       Co279   2.075       .  S
N264        C278   1.338       .  A
N265        N293   1.322       .  A
N265       Co283   2.085       .  S
H266        C289   1.081       .  S
H267        C284   1.082       .  S
N269       Co283   2.079       .  S
N270        N282   1.332       .  A
N270        N286   1.318       .  A
N270       Co279   2.105       .  S
C271        C285   1.468       .  S
C271        C296   1.473       .  S
C271        N275   1.343       .  A
C272        C291   1.470       .  S
C272        H276   1.081       .  S
N273        C284   1.335       .  A
N273       Co283   2.058       .  S
C277        C289   1.460       .  S
C277        N293   1.348       .  A
Co279      Cl290   2.478       .  S
N280        C291   1.342       .  A
Co283      Cl290   2.419       .  S
C294        C295   1.415       .  A
C294        C299   1.416       .  A
C294        C411   1.508       .  S
C295        C296   1.405       .  A
C295        H300   1.082       .  S
C296        C297   1.400       .  A
C297        C298   1.400       .  A
C297        H301   1.085       .  S
C298        C299   1.405       .  A
C298        C320   1.477       .  S
C299        H302   1.083       .  S
C303        C304   1.407       .  A
C303        C308   1.409       .  A
C303        C464   1.488       .  S
C304        C305   1.400       .  A
C304        H309   1.083       .  S
C305        C306   1.397       .  A
C306        C307   1.396       .  A
C306        H310   1.078       .  S
C307        C308   1.401       .  A
C307        C327   1.473       .  S
C308        H311   1.083       .  S
C312        C349   1.455       .  S
C312        N330   1.352       .  A
N313        N330   1.327       .  A
N313        N335   1.319       .  A
N313      Co2114   2.091   1_545  S
C314        C352   1.465       .  S
C314        H359   1.081       .  S
C314        N339   1.346       .  A
H315        C356   1.081       .  S
C316        C320   1.456       .  S
C316        H345   1.082       .  S
C316        N340   1.337       .  A
Co317       N357   2.086       .  S
Co317       N333   2.074       .  S
Co317      N1511   2.073   1_455  S
Co317      N1501   2.090   1_455  S
Co317      Cl949   2.431   1_545  S
N318        C356   1.334       .  A
N318        N325   1.320       .  A
N318      Co2083   2.070   1_545  S
Co319       N326   2.071       .  S
Co319      N2082   2.070   1_455  S
Co319      N1498   2.102   1_455  S
Co319       N927   2.095       .  S
Co319      Cl361   2.473       .  S
C320        N358   1.355       .  A
N321        N328   1.319       .  A
N321        N351   1.324       .  A
N321      Co1530   2.091       .  S
N322        N340   1.320       .  A
N322        N358   1.330       .  A
N322      Co1495   2.102       .  S
N323        C352   1.346       .  A
N323        N333   1.321       .  A
H324        C349   1.082       .  S
N325        N346   1.325       .  A
N325      Co1493   2.090       .  S
N326        N344   1.320       .  A
N326        N331   1.324       .  A
C327        C355   1.461       .  S
C327        N331   1.349       .  A
N328        C343   1.336       .  A
N328      Co1526   2.067       .  S
C329        C332   1.461       .  S
C329        H363   1.081       .  S
C329        N357   1.339       .  A
C332        N353   1.348       .  A
N333        N339   1.319       .  A
N334        C360   1.347       .  A
N334        N336   1.318       .  A
N334       Co350   2.095       .  S
N335        C349   1.336       .  A
N335      Co1493   2.073       .  S
N336        N364   1.323       .  A
N336       Co354   2.084       .  S
H337        C360   1.082       .  S
H338        C355   1.081       .  S
N339       Co907   2.095   1_545  S
N340      Co1530   2.079       .  S
N341        N353   1.321       .  A
N341        N357   1.320       .  A
N341       Co938   2.068   1_545  S
C342        C356   1.459       .  S
C342        N346   1.352       .  A
C343        C362   1.458       .  S
C343        H347   1.081       .  S
N344        C355   1.335       .  A
N344       Co354   2.083       .  S
C348        C360   1.467       .  S
C348        N364   1.349       .  A
Co350      N2077   2.091   1_455  S
Co350      N1504   2.067   1_455  S
Co350       N929   2.068       .  S
Co350      Cl361   2.471       .  S
N351        C362   1.352       .  A
Co354      N1497   2.091   1_455  S
Co354      N1516   2.079   1_455  S
Co354      Cl361   2.427       .  S
Cl361      Co905   2.431       .  S
C365        C366   1.404       .  A
C365        C370   1.400       .  A
C365        H960   1.084       .  S
C366        C367   1.408   1_565  A
C366        C774   1.491       .  S
C367        C368   1.401       .  A
C367        N374   1.431       .  S
C368        C369   1.407       .  A
C368        H373   1.083       .  S
C369        C370   1.415   1_545  A
C370        N371   1.439       .  S
N371        H376   1.046       .  S
N371        H963   1.046       .  S
H372        C953   1.084       .  S
N374        H377   1.046       .  S
N374        H378   1.045       .  S
H375        N959   1.046       .  S
C379        C380   1.401       .  A
C379        C384   1.399       .  A
C379        H386   1.084       .  S
C380        C381   1.410       .  A
C381        C382   1.405       .  A
C381        N388   1.437       .  S
C382        C383   1.409       .  A
C382        H387   1.083       .  S
C383        C384   1.417       .  A
C384        N385   1.439       .  S
N385        H389   1.046       .  S
N385        H390   1.046       .  S
N388        H391   1.042   1_556  S
N388        H392   1.046       .  S
C393        C394   1.409       .  A
C393        C398   1.403       .  A
C393        H400   1.083       .  S
C394        C395   1.420       .  A
C395        C396   1.403       .  A
C395        N402   1.437       .  S
C396        C397   1.407       .  A
C396        H401   1.083       .  S
C397        C398   1.409       .  A
C398        N399   1.438   1_455  S
N399        H403   1.045       .  S
N399        H404   1.046       .  S
N402        H405   1.043       .  S
N402        H406   1.045       .  S
C407        C408   1.408       .  A
C407        C412   1.412       .  A
C407        H414   1.083       .  S
C408        C409   1.415       .  A
C408       C1360   1.509       .  S
C409        C410   1.400       .  A
C409       N1592   1.433       .  S
C410        C411   1.409       .  A
C410        H415   1.082       .  S
C411        C412   1.418       .  A
C412        N413   1.437       .  S
N413        H417   1.046       .  S
N413        H418   1.046       .  S
N416       C1585   1.433       .  S
N416        H419   1.046       .  S
N416        H420   1.043       .  S
C421        C422   1.395       .  A
C421        C426   1.398       .  A
C421        H428   1.084       .  S
C422        C423   1.402       .  A
C423        C424   1.408       .  A
C423        N430   1.432       .  S
C424        C425   1.421       .  A
C424        H429   1.079       .  S
C425        C426   1.438       .  A
C426        N427   1.430       .  S
N427        H431   1.045       .  S
N427        H432   1.043       .  S
N430        H433   1.046       .  S
N430        H434   1.045       .  S
C435        C436   1.396       .  A
C435        C440   1.398       .  A
C435        H442   1.085       .  S
C436        C437   1.417       .  A
C437        C438   1.411       .  A
C437        N444   1.432       .  S
C438        C439   1.414       .  A
C438        H443   1.083       .  S
C439        C440   1.424       .  A
C439       C1358   1.525       .  S
C440        N441   1.427       .  S
N441        H445   1.046       .  S
N441       H1622   1.046       .  S
N444        H447   1.043       .  S
N444        H448   1.045       .  S
H446       N1617   1.046   1_455  S
C449        C450   1.404   1_545  A
C449        C454   1.404       .  A
C449        H456   1.084       .  S
C450        C451   1.409       .  A
C450        C768   1.494       .  S
C451        C452   1.398   1_565  A
C451       N1046   1.438       .  S
C452        C453   1.405       .  A
C452        H457   1.083   1_545  S
C453        C454   1.421       .  A
C454        N455   1.439       .  S
N455        H459   1.046       .  S
N455        H460   1.042       .  S
N458       C1039   1.438       .  S
N458        H461   1.046       .  S
N458        H462   1.046       .  S
C463        C464   1.405       .  A
C463        C468   1.399       .  A
C463        H470   1.083       .  S
C464        C465   1.421       .  A
C465        C466   1.400       .  A
C465        N472   1.437       .  S
C466        C467   1.403       .  A
C466        H471   1.083       .  S
C467        C468   1.411       .  A
C468        N469   1.438       .  S
N469        H473   1.046       .  S
N469        H474   1.046       .  S
N472        H475   1.043       .  S
N472        H476   1.045       .  S
C477        C478   1.408       .  A
C477        C482   1.407   1_545  A
C477        H484   1.083       .  S
C478        C479   1.416       .  A
C479        C480   1.401       .  A
C479        N486   1.433       .  S
C480        C481   1.402   1_545  A
C480        H485   1.084       .  S
C481        C482   1.421       .  A
C481        C773   1.501       .  S
C482       N1071   1.439       .  S
N483       C1070   1.439       .  S
N483        H487   1.046       .  S
N483        H488   1.043       .  S
N486        H489   1.046       .  S
N486        H490   1.046       .  S
C491        C492   1.404       .  A
C491        C496   1.398       .  A
C491        H498   1.084       .  S
C492        C493   1.421       .  A
C493        C494   1.403       .  A
C493        N500   1.437       .  S
C494        C495   1.406       .  A
C494        H499   1.083       .  S
C495        C496   1.410       .  A
C496        N497   1.433       .  S
N497        H501   1.046       .  S
N497        H502   1.046       .  S
N500        H503   1.043       .  S
N500        H504   1.045       .  S
C505        C506   1.408       .  A
C505        C510   1.401       .  A
C505        H512   1.083       .  S
C506        C507   1.421       .  A
C507        C508   1.405   1_545  A
C507        N514   1.437       .  S
C508        C509   1.408       .  A
C508        H513   1.083       .  S
C509        C510   1.408   1_565  A
C509        C767   1.503       .  S
C510       N1099   1.432       .  S
N511       C1098   1.432       .  S
N511        H515   1.046       .  S
N511        H516   1.045       .  S
N514        H517   1.043       .  S
N514        H518   1.045       .  S
C519        C520   1.399       .  A
C519        C524   1.405       .  A
C519        H526   1.084       .  S
C520        C521   1.399       .  A
C521        C522   1.400       .  A
C521        N528   1.432       .  S
C522        C523   1.414       .  A
C522        H527   1.081       .  S
C523        C524   1.428       .  A
C524        N525   1.438       .  S
N525        H529   1.046       .  S
N525        H530   1.046       .  S
N528        H531   1.046       .  S
N528        H532   1.045   1_455  S
C533        C534   1.389       .  A
C533        C538   1.391       .  A
C533        H540   1.086       .  S
C534        C535   1.417       .  A
C535        C536   1.411       .  A
C535        N542   1.438       .  S
C536        C537   1.414       .  A
C536        H541   1.082       .  S
C537        C538   1.431       .  A
C537       C1357   1.532       .  S
C538       N1715   1.428       .  S
N539       C1714   1.428       .  S
N539        H543   1.046       .  S
N539        H544   1.046       .  S
N542        H545   1.043       .  S
N542        H546   1.045       .  S
C547        C548   1.407       .  A
C547        C552   1.410       .  A
C547        H554   1.083       .  S
C548        C549   1.413       .  A
C549        C550   1.398       .  A
C549        N556   1.433       .  S
C550        C551   1.410       .  A
C550        H555   1.082       .  S
C551        C552   1.418       .  A
C552        N553   1.437       .  S
N553        H557   1.046       .  S
N553        H558   1.046       .  S
N556        H559   1.046       .  S
N556        H560   1.043       .  S
C561        C562   1.407       .  A
C561        C566   1.406       .  A
C561        H568   1.082       .  S
C562        C563   1.409       .  A
C563        C564   1.401       .  A
C563        N570   1.433       .  S
C564        C565   1.409       .  A
C564        H569   1.083       .  S
C565        C566   1.422       .  A
C566        N567   1.439       .  S
N567        H571   1.046       .  S
N567        H572   1.043       .  S
N570        H573   1.045       .  S
N570        H574   1.046       .  S
C575        C576   1.404       .  A
C575        C580   1.406       .  A
C575       H1758   1.083       .  S
C576        C577   1.413       .  A
C576       C1359   1.489       .  S
C577        C578   1.389       .  A
C577        N584   1.433       .  S
C578        C579   1.404       .  A
C578        H583   1.083       .  S
C579        C580   1.416       .  A
C580        N581   1.437       .  S
N581        H586   1.045       .  S
N581       H1761   1.046       .  S
H582       C1751   1.083       .  S
N584        H587   1.046       .  S
N584        H588   1.042       .  S
H585       N1757   1.046       .  S
C589        C590   1.404       .  A
C589        C594   1.405       .  A
C589       C1167   1.487       .  S
C590        C591   1.399       .  A
C590        H595   1.081       .  S
C591        C592   1.400       .  A
C591        C764   1.472       .  S
C592        C593   1.401       .  A
C592        H596   1.082       .  S
C593        C594   1.403       .  A
C593        C625   1.472       .  S
C594        H597   1.082       .  S
C598        C599   1.411       .  A
C598        C603   1.412       .  A
C598       C1153   1.498       .  S
C599        C600   1.403       .  A
C599        H604   1.084       .  S
C600        C601   1.400       .  A
C600        C655   1.469       .  S
C601        C602   1.400       .  A
C601        H605   1.085       .  S
C602        C603   1.404       .  A
C602        C722   1.473       .  S
C603        H606   1.084       .  S
C607        C608   1.414       .  A
C607        C612   1.413       .  A
C607       C1139   1.504       .  S
C608        C609   1.404       .  A
C608        H613   1.083       .  S
C609        C610   1.402       .  A
C609        C750   1.475       .  S
C610        C611   1.402       .  A
C610        H614   1.084       .  S
C611        C612   1.404       .  A
C611        C675   1.474       .  S
C612        H615   1.082       .  S
C616        C617   1.393       .  A
C616        C621   1.403       .  A
C616       C1122   1.481       .  S
C617        C618   1.404       .  A
C617        H622   1.081       .  S
C618        C619   1.406       .  A
C618        C744   1.475       .  S
C619        C620   1.407       .  A
C619        H623   1.083       .  S
C620        C621   1.407       .  A
C620        C665   1.481       .  S
C621        H624   1.082       .  S
C625        C662   1.460       .  S
C625       N1819   1.349       .  A
N626        N643   1.323       .  A
N626       N1824   1.322       .  A
N626       Co663   2.073   1_655  S
C627        C665   1.461       .  S
C627       H1848   1.081       .  S
C627       N1828   1.337       .  A
H628       C1845   1.081       .  S
C629        C633   1.459       .  S
C629        H658   1.080       .  S
C629        N653   1.334       .  A
Co630       N648   2.091       .  S
Co630       N638   2.060       .  S
Co630     Cl1850   2.420       .  S
N631       C1845   1.348       .  A
N631       N1814   1.318       .  A
N631       Co632   2.099   1_655  S
Co632       N635   2.078       .  S
Co632      Cl674   2.478       .  S
C633        C680   1.472       .  S
C633        N671   1.351       .  A
N634        N641   1.317       .  A
N634        N664   1.321       .  A
N634       Co667   2.064       .  S
N635        N653   1.321       .  A
N635        N671   1.325       .  A
N636        C665   1.353       .  A
N636        N646   1.326       .  A
H637        C662   1.081       .  S
N638       N1807   1.318       .  A
N638        N659   1.319       .  A
N639        N657   1.318       .  A
N639        N644   1.329       .  A
C640        C668   1.450       .  S
C640        C707   1.471       .  S
C640        N644   1.356       .  A
N641        C656   1.349       .  A
N641       Co663   2.103       .  S
C642        C645   1.450       .  S
C642        H676   1.082       .  S
C642        N670   1.334       .  A
N643       C1801   1.349       .  A
C645        C689   1.468       .  S
C645        N666   1.354       .  A
N646       N1828   1.321       .  A
N647        C673   1.338       .  A
N647        N649   1.320       .  A
N648        C662   1.338       .  A
N648       N1802   1.322       .  A
N649        N677   1.323       .  A
H650        C673   1.081       .  S
H651        C668   1.082       .  S
N652       C1803   1.337       .  A
N652       N1822   1.321       .  A
N653       Co667   2.082       .  S
N654       N1842   1.329       .  A
N654       N1846   1.318       .  A
C655        C669   1.468       .  S
C655        N659   1.342       .  A
C656        C675   1.470       .  S
C656        H660   1.082       .  S
N657        C668   1.335       .  A
C661        C673   1.459       .  S
C661        C698   1.474       .  S
C661        N677   1.351       .  A
Co663      Cl674   2.477       .  S
N664        C675   1.343       .  A
N666       N1830   1.329       .  A
Co667      Cl674   2.420       .  S
C669       H1804   1.081       .  S
C669       N1807   1.348       .  A
N670       N1830   1.318       .  A
H672       C1803   1.081   1_455  S
Cl674     Co1806   2.420   1_455  S
C678        C679   1.417       .  A
C678        C683   1.412       .  A
C678       C1111   1.509       .  S
C679        C680   1.401       .  A
C679        H684   1.080       .  S
C680        C681   1.393       .  A
C681        C682   1.392       .  A
C681        H685   1.078       .  S
C682        C683   1.401       .  A
C682        C729   1.471       .  S
C683        H686   1.078       .  S
C687        C688   1.411       .  A
C687        C692   1.412       .  A
C687       C1094   1.497       .  S
C688        C689   1.404       .  A
C688        H693   1.084       .  S
C689        C690   1.398       .  A
C690        C691   1.397       .  A
C690        H694   1.085       .  S
C691        C692   1.403       .  A
C691        C714   1.471       .  S
C692        H695   1.084       .  S
C696        C697   1.405       .  A
C696        C701   1.406       .  A
C696       C1080   1.490       .  S
C697        C698   1.404       .  A
C697        H702   1.082       .  S
C698        C699   1.400       .  A
C699        C700   1.400       .  A
C699        H703   1.082       .  S
C700        C701   1.403       .  A
C700        C734   1.474       .  S
C701        H704   1.083       .  S
C705        C706   1.412       .  A
C705        C710   1.412       .  A
C705       C1066   1.501       .  S
C706        C707   1.404       .  A
C706        H711   1.083       .  S
C707        C708   1.401       .  A
C708        C709   1.400       .  A
C708        H712   1.085       .  S
C709        C710   1.404       .  A
C709        C754   1.472       .  S
C710        H713   1.083       .  S
C714        C751   1.454       .  S
C714        N732   1.353       .  A
N715        N732   1.329       .  A
N715        N737   1.319       .  A
N715       Co752   2.097       .  S
C716        C754   1.466       .  S
C716        H761   1.082       .  S
C716        N741   1.347       .  A
H717        C758   1.081       .  S
C718        C722   1.456       .  S
C718        H747   1.082       .  S
C718        N742   1.337       .  A
Co719       N737   2.072       .  S
Co719       N727   2.095       .  S
Co719       N759   2.090       .  S
Co719       N735   2.077       .  S
Co719      Cl763   2.430       .  S
N720        C758   1.331       .  A
N720        N727   1.319       .  A
N720       Co721   2.060       .  S
Co721       N724   2.099       .  S
Co721       N741   2.097       .  S
Co721       N728   2.068       .  S
Co721      Cl763   2.472       .  S
C722        N760   1.354       .  A
N723        N730   1.319       .  A
N723        N753   1.323       .  A
N723       Co756   2.083       .  S
N724        N742   1.319       .  A
N724        N760   1.329       .  A
N725        C754   1.346       .  A
N725        N735   1.321       .  A
H726        C751   1.082       .  S
N727        N748   1.327       .  A
N728        N746   1.320       .  A
N728        N733   1.323       .  A
C729        C757   1.461       .  S
C729        N733   1.349       .  A
N730        C745   1.337       .  A
N730       Co752   2.070       .  S
C731        C734   1.462       .  S
C731        H765   1.081       .  S
C731        N759   1.339       .  A
C734        N755   1.349       .  A
N735        N741   1.319       .  A
N736        C762   1.347       .  A
N736        N738   1.319       .  A
N736       Co752   2.099       .  S
N737        C751   1.335       .  A
N738        N766   1.323       .  A
N738       Co756   2.081       .  S
H739        C762   1.082       .  S
H740        C757   1.081       .  S
N742       Co756   2.075       .  S
N743        N755   1.323       .  A
N743        N759   1.321       .  A
N743       Co752   2.072       .  S
C744        C758   1.456       .  S
C744        N748   1.354       .  A
C745        C764   1.460       .  S
C745        H749   1.081       .  S
N746        C757   1.334       .  A
N746       Co756   2.080       .  S
C750        C762   1.467       .  S
C750        N766   1.348       .  A
Co752      Cl763   2.473       .  S
N753        C764   1.349       .  A
Co756      Cl763   2.426       .  S
C767        C768   1.373       .  D
C767       C1136   1.505       .  S
C768       C1055   1.494       .  S
C769        C770   1.388   1_554  D
C769       C1108   1.493       .  S
C769       C2301   1.532   1_455  S
C770       C1010   1.506       .  S
C770       C2203   1.525       .  S
C771        C772   1.373       .  D
C771       C1083   1.499       .  S
C771       C2340   1.489       .  S
C772        C985   1.498       .  S
C772       C2172   1.509       .  S
C773        C774   1.372   1_554  D
C773       C1150   1.505       .  S
C774        C968   1.489       .  S
C775        C776   1.406       .  A
C775        C780   1.405       .  A
C775        C971   1.493       .  S
C776        C777   1.402       .  A
C776        H781   1.083       .  S
C777        C778   1.401       .  A
C777        C829   1.472       .  S
C778        C779   1.399       .  A
C778        H782   1.082       .  S
C779        C780   1.402       .  A
C779        C950   1.474       .  S
C780        H783   1.080       .  S
C784        C785   1.417       .  A
C784        C789   1.406       .  A
C784       C1024   1.494       .  S
C785        C786   1.407       .  A
C785        H790   1.084       .  S
C786        C787   1.400       .  A
C786        C849   1.478       .  S
C787        C788   1.398       .  A
C787        H791   1.085       .  S
C788        C789   1.403       .  A
C788        C900   1.468       .  S
C789        H792   1.083       .  S
C793        C794   1.403       .  A
C793        C798   1.404       .  A
C793        C957   1.486       .  S
C794        C795   1.401       .  A
C794        H799   1.083       .  S
C795        C796   1.399       .  A
C795        C920   1.471       .  S
C796        C797   1.401       .  A
C796        H800   1.082       .  S
C797        C798   1.401       .  A
C797        C865   1.470       .  S
C798        H801   1.082       .  S
C802        C803   1.418       .  A
C802        C807   1.424       .  A
C802       C1013   1.532       .  S
C803        C804   1.403       .  A
C803        H808   1.069       .  S
C804        C805   1.398       .  A
C804        C936   1.477       .  S
C805        C806   1.398       .  A
C805        H809   1.085       .  S
C806        C807   1.405       .  A
C806        C879   1.474       .  S
C807        H810   1.078       .  S
C811        C812   1.409       .  A
C811        C816   1.411       .  A
C811        C982   1.495       .  S
C812        C813   1.402       .  A
C812        H817   1.083       .  S
C813        C814   1.401       .  A
C813        C844   1.470       .  S
C814        C815   1.400       .  A
C814        H818   1.085       .  S
C815        C816   1.402       .  A
C815        C940   1.470       .  S
C816        H819   1.084       .  S
C820        C821   1.400       .  A
C820        C825   1.401       .  A
C820       C1041   1.488       .  S
C821        C822   1.402       .  A
C821        H826   1.081       .  S
C822        C823   1.404       .  A
C822        C930   1.475       .  S
C823        C824   1.404       .  A
C823        H827   1.083       .  S
C824        C825   1.406       .  A
C824        C869   1.475       .  S
C825        H828   1.082       .  S
C829        C866   1.459       .  S
C829        N847   1.350       .  A
N830        N847   1.323       .  A
N830        N852   1.322       .  A
N830       Co867   2.077       .  S
C831        C869   1.457       .  S
C831        H876   1.081       .  S
C831        N856   1.334       .  A
H832        C873   1.081       .  S
C833        C837   1.457       .  S
C833        H862   1.080       .  S
C833        N857   1.333       .  A
Co834       N852   2.090       .  S
Co834       N842   2.065       .  S
Co834       N874   2.066       .  S
Co834       N850   2.101       .  S
Co834      Cl878   2.421       .  S
N835        C873   1.349       .  A
N835        N842   1.318       .  A
N835       Co836   2.100       .  S
Co836       N839   2.078       .  S
Co836       N856   2.068       .  S
Co836       N843   2.100       .  S
Co836      Cl878   2.478       .  S
C837        C893   1.471       .  S
C837        N875   1.351       .  A
N838        N845   1.318       .  A
N838        N868   1.321       .  A
N838       Co871   2.058       .  S
N839        N857   1.321       .  A
N839        N875   1.325       .  A
N840        C869   1.354       .  A
N840        N850   1.326       .  A
H841        C866   1.081       .  S
N842        N863   1.321       .  A
N843        N861   1.317       .  A
N843        N848   1.329       .  A
C844        C872   1.450       .  S
C844        N848   1.355       .  A
N845        C860   1.349       .  A
N845       Co867   2.108       .  S
C846        C849   1.452       .  S
C846        H880   1.082       .  S
C846        N874   1.335       .  A
C849        N870   1.356       .  A
N850        N856   1.321       .  A
N851        C877   1.338       .  A
N851        N853   1.321       .  A
N851       Co867   2.075       .  S
N852        C866   1.338       .  A
N853        N881   1.322       .  A
N853       Co871   2.085       .  S
H854        C877   1.081       .  S
H855        C872   1.082       .  S
N857       Co871   2.079       .  S
N858        N870   1.332       .  A
N858        N874   1.318       .  A
N858       Co867   2.105       .  S
C859        C873   1.468       .  S
C859        C884   1.473       .  S
C859        N863   1.343       .  A
C860        C879   1.470       .  S
C860        H864   1.081       .  S
N861        C872   1.335       .  A
N861       Co871   2.058       .  S
C865        C877   1.460       .  S
C865        N881   1.348       .  A
Co867      Cl878   2.478       .  S
N868        C879   1.342       .  A
Co871      Cl878   2.419       .  S
C882        C883   1.415       .  A
C882        C887   1.416       .  A
C882        C999   1.508       .  S
C883        C884   1.405       .  A
C883        H888   1.082       .  S
C884        C885   1.400       .  A
C885        C886   1.400       .  A
C885        H889   1.085       .  S
C886        C887   1.405       .  A
C886        C908   1.477       .  S
C887        H890   1.083       .  S
C891        C892   1.407       .  A
C891        C896   1.409       .  A
C891       C1052   1.488       .  S
C892        C893   1.400       .  A
C892        H897   1.083       .  S
C893        C894   1.397       .  A
C894        C895   1.396       .  A
C894        H898   1.078       .  S
C895        C896   1.401       .  A
C895        C915   1.473       .  S
C896        H899   1.083       .  S
C900        C937   1.455       .  S
C900        N918   1.352       .  A
N901        N918   1.327       .  A
N901        N923   1.319       .  A
N901      Co1526   2.091       .  S
C902        C940   1.465       .  S
C902        H947   1.081       .  S
C902        N927   1.346       .  A
H903        C944   1.081       .  S
C904        C908   1.456       .  S
C904        H933   1.082       .  S
C904        N928   1.337       .  A
Co905      N2099   2.073   1_455  S
Co905      N2089   2.090   1_455  S
Co905       N945   2.086       .  S
Co905       N921   2.074       .  S
N906        C944   1.334       .  A
N906        N913   1.320       .  A
N906      Co1495   2.070       .  S
Co907      N1494   2.070   1_465  S
Co907      N2086   2.102   1_455  S
Co907       N914   2.071       .  S
Co907      Cl949   2.473       .  S
C908        N946   1.355       .  A
N909        N916   1.319       .  A
N909        N939   1.324       .  A
N909      Co2118   2.091       .  S
N910        N928   1.320       .  A
N910        N946   1.330       .  A
N910      Co2083   2.102       .  S
N911        C940   1.346       .  A
N911        N921   1.321       .  A
H912        C937   1.082       .  S
N913        N934   1.325       .  A
N913      Co2081   2.090       .  S
N914        N932   1.320       .  A
N914        N919   1.324       .  A
C915        C943   1.461       .  S
C915        N919   1.349       .  A
N916        C931   1.336       .  A
N916      Co2114   2.067       .  S
C917        C920   1.461       .  S
C917        H951   1.081       .  S
C917        N945   1.339       .  A
C920        N941   1.348       .  A
N921        N927   1.319       .  A
N922        C948   1.347       .  A
N922        N924   1.318       .  A
N922       Co938   2.095       .  S
N923        C937   1.336       .  A
N923      Co2081   2.073       .  S
N924        N952   1.323       .  A
N924       Co942   2.084       .  S
H925        C948   1.082       .  S
H926        C943   1.081       .  S
N928      Co2118   2.079       .  S
N929        N941   1.321       .  A
N929        N945   1.320       .  A
C930        C944   1.459       .  S
C930        N934   1.352       .  A
C931        C950   1.458       .  S
C931        H935   1.081       .  S
N932        C943   1.335       .  A
N932       Co942   2.083       .  S
C936        C948   1.467       .  S
C936        N952   1.349       .  A
Co938      N1489   2.091   1_465  S
Co938      N2092   2.067   1_455  S
Co938      Cl949   2.471       .  S
N939        C950   1.352       .  A
Co942      N2085   2.091   1_455  S
Co942      N2104   2.079   1_455  S
Co942      Cl949   2.427       .  S
C953        C954   1.404       .  A
C953        C958   1.400       .  A
C954        C955   1.408       .  A
C955        C956   1.401       .  A
C955        N962   1.431       .  S
C956        C957   1.407       .  A
C956        H961   1.083       .  S
C957        C958   1.415       .  A
C958        N959   1.439       .  S
N959        H964   1.046       .  S
N962        H965   1.046       .  S
N962        H966   1.045       .  S
C967        C968   1.401       .  A
C967        C972   1.399       .  A
C967        H974   1.084       .  S
C968        C969   1.410       .  A
C969        C970   1.405       .  A
C969        N976   1.437       .  S
C970        C971   1.409       .  A
C970        H975   1.083       .  S
C971        C972   1.417       .  A
C972        N973   1.439       .  S
N973        H977   1.046   1_565  S
N973        H978   1.046       .  S
N976        H979   1.042   1_556  S
N976        H980   1.046       .  S
C981        C982   1.409       .  A
C981        C986   1.403       .  A
C981        H988   1.083       .  S
C982        C983   1.420       .  A
C983        C984   1.403       .  A
C983        N990   1.437       .  S
C984        C985   1.407       .  A
C984        H989   1.083       .  S
C985        C986   1.409       .  A
C986        N987   1.438   1_455  S
N987        H991   1.045       .  S
N987        H992   1.046       .  S
N990        H993   1.043       .  S
N990        H994   1.045       .  S
C995        C996   1.408       .  A
C995       C1000   1.412       .  A
C995       H1002   1.083       .  S
C996        C997   1.415       .  A
C996       C1948   1.509       .  S
C997        C998   1.400       .  A
C997       N2180   1.433       .  S
C998        C999   1.409       .  A
C998       H1003   1.082       .  S
C999       C1000   1.418       .  A
C1000      N1001   1.437       .  S
N1001      H1005   1.046       .  S
N1001      H1006   1.046       .  S
N1004      C2173   1.433       .  S
N1004      H1007   1.046       .  S
N1004      H1008   1.043       .  S
C1009      C1010   1.395       .  A
C1009      C1014   1.398       .  A
C1009      H1016   1.084       .  S
C1010      C1011   1.402       .  A
C1011      C1012   1.408       .  A
C1011      N1018   1.432       .  S
C1012      C1013   1.421       .  A
C1012      H1017   1.079       .  S
C1013      C1014   1.438       .  A
C1014      N1015   1.430       .  S
N1015      H1019   1.045       .  S
N1015      H1020   1.043       .  S
N1018      H1021   1.046       .  S
N1018      H1022   1.045       .  S
C1023      C1024   1.396       .  A
C1023      C1028   1.398       .  A
C1023      H1030   1.085       .  S
C1024      C1025   1.417       .  A
C1025      C1026   1.411       .  A
C1025      N1032   1.432       .  S
C1026      C1027   1.414       .  A
C1026      H1031   1.083       .  S
C1027      C1028   1.424       .  A
C1027      C1946   1.525       .  S
C1028      N1029   1.427       .  S
N1029      H1033   1.046       .  S
N1029      H2210   1.046       .  S
N1032      H1035   1.043       .  S
N1032      H1036   1.045       .  S
H1034      N2205   1.046   1_455  S
C1037      C1038   1.404       .  A
C1037      C1042   1.404       .  A
C1037      H1044   1.084       .  S
C1038      C1039   1.409       .  A
C1039      C1040   1.398       .  A
C1040      C1041   1.405       .  A
C1040      H1045   1.083       .  S
C1041      C1042   1.421       .  A
C1042      N1043   1.439       .  S
N1043      H1047   1.046       .  S
N1043      H1048   1.042       .  S
N1046      H1049   1.046       .  S
N1046      H1050   1.046       .  S
C1051      C1052   1.405       .  A
C1051      C1056   1.399       .  A
C1051      H1058   1.083       .  S
C1052      C1053   1.421       .  A
C1053      C1054   1.400       .  A
C1053      N1060   1.437       .  S
C1054      C1055   1.403       .  A
C1054      H1059   1.083       .  S
C1055      C1056   1.411       .  A
C1056      N1057   1.438   1_565  S
N1057      H1061   1.046       .  S
N1057      H1062   1.046       .  S
N1060      H1063   1.043       .  S
N1060      H1064   1.045       .  S
C1065      C1066   1.408       .  A
C1065      C1070   1.407       .  A
C1065      H1072   1.083       .  S
C1066      C1067   1.416       .  A
C1067      C1068   1.401       .  A
C1067      N1074   1.433       .  S
C1068      C1069   1.402       .  A
C1068      H1073   1.084       .  S
C1069      C1070   1.421       .  A
N1071      H1075   1.046       .  S
N1071      H1076   1.043       .  S
N1074      H1077   1.046       .  S
N1074      H1078   1.046       .  S
C1079      C1080   1.404       .  A
C1079      C1084   1.398       .  A
C1079      H1086   1.084       .  S
C1080      C1081   1.421       .  A
C1081      C1082   1.403       .  A
C1081      N1088   1.437       .  S
C1082      C1083   1.406       .  A
C1082      H1087   1.083       .  S
C1083      C1084   1.410       .  A
C1084      N1085   1.433       .  S
N1085      H1089   1.046       .  S
N1085      H1090   1.046       .  S
N1088      H1091   1.043       .  S
N1088      H1092   1.045       .  S
C1093      C1094   1.408       .  A
C1093      C1098   1.401       .  A
C1093      H1100   1.083       .  S
C1094      C1095   1.421       .  A
C1095      C1096   1.405       .  A
C1095      N1102   1.437       .  S
C1096      C1097   1.408       .  A
C1096      H1101   1.083       .  S
C1097      C1098   1.408       .  A
N1099      H1103   1.046       .  S
N1099      H1104   1.045       .  S
N1102      H1105   1.043       .  S
N1102      H1106   1.045       .  S
C1107      C1108   1.399       .  A
C1107      C1112   1.405       .  A
C1107      H1114   1.084       .  S
C1108      C1109   1.399       .  A
C1109      C1110   1.400       .  A
C1109      N1116   1.432       .  S
C1110      C1111   1.414       .  A
C1110      H1115   1.081       .  S
C1111      C1112   1.428       .  A
C1112      N1113   1.438       .  S
N1113      H1117   1.046       .  S
N1113      H1118   1.046       .  S
N1116      H1119   1.046       .  S
N1116      H1120   1.045   1_455  S
C1121      C1122   1.389       .  A
C1121      C1126   1.391       .  A
C1121      H1128   1.086       .  S
C1122      C1123   1.417       .  A
C1123      C1124   1.411       .  A
C1123      N1130   1.438       .  S
C1124      C1125   1.414       .  A
C1124      H1129   1.082       .  S
C1125      C1126   1.431       .  A
C1125      C1945   1.532       .  S
C1126      N2303   1.428       .  S
N1127      C2302   1.428       .  S
N1127      H1131   1.046       .  S
N1127      H1132   1.046       .  S
N1130      H1133   1.043       .  S
N1130      H1134   1.045       .  S
C1135      C1136   1.407       .  A
C1135      C1140   1.410       .  A
C1135      H1142   1.083       .  S
C1136      C1137   1.413       .  A
C1137      C1138   1.398       .  A
C1137      N1144   1.433       .  S
C1138      C1139   1.410       .  A
C1138      H1143   1.082       .  S
C1139      C1140   1.418       .  A
C1140      N1141   1.437       .  S
N1141      H1145   1.046       .  S
N1141      H1146   1.046       .  S
N1144      H1147   1.046       .  S
N1144      H1148   1.043       .  S
C1149      C1150   1.407       .  A
C1149      C1154   1.406       .  A
C1149      H1156   1.082       .  S
C1150      C1151   1.409       .  A
C1151      C1152   1.401       .  A
C1151      N1158   1.433       .  S
C1152      C1153   1.409       .  A
C1152      H1157   1.083       .  S
C1153      C1154   1.422       .  A
C1154      N1155   1.439       .  S
N1155      H1159   1.046       .  S
N1155      H1160   1.043       .  S
N1158      H1161   1.045       .  S
N1158      H1162   1.046       .  S
C1163      C1164   1.404       .  A
C1163      C1168   1.406       .  A
C1163      H2346   1.083       .  S
C1164      C1165   1.413       .  A
C1164      C1947   1.489       .  S
C1165      C1166   1.389       .  A
C1165      N1172   1.433       .  S
C1166      C1167   1.404       .  A
C1166      H1171   1.083       .  S
C1167      C1168   1.416       .  A
C1168      N1169   1.437       .  S
N1169      H2349   1.046       .  S
N1169      H1174   1.045       .  S
H1170      C2339   1.083       .  S
N1172      H1175   1.046       .  S
N1172      H1176   1.042       .  S
H1173      N2345   1.046       .  S
C1177      C1178   1.404       .  A
C1177      C1182   1.405       .  A
C1177      C1755   1.487       .  S
C1178      C1179   1.399       .  A
C1178      H1183   1.081       .  S
C1179      C1180   1.400       .  A
C1179      C1352   1.472       .  S
C1180      C1181   1.401       .  A
C1180      H1184   1.082       .  S
C1181      C1182   1.403       .  A
C1181      C1213   1.472       .  S
C1182      H1185   1.082       .  S
C1186      C1187   1.411       .  A
C1186      C1191   1.412       .  A
C1186      C1741   1.498       .  S
C1187      C1188   1.403       .  A
C1187      H1192   1.084       .  S
C1188      C1189   1.400       .  A
C1188      C1243   1.469       .  S
C1189      C1190   1.400       .  A
C1189      H1193   1.085       .  S
C1190      C1191   1.404       .  A
C1190      C1310   1.473       .  S
C1191      H1194   1.084       .  S
C1195      C1196   1.414       .  A
C1195      C1200   1.413       .  A
C1195      C1727   1.504       .  S
C1196      C1197   1.404       .  A
C1196      H1201   1.083       .  S
C1197      C1198   1.402       .  A
C1197      C1338   1.475       .  S
C1198      C1199   1.402       .  A
C1198      H1202   1.084       .  S
C1199      C1200   1.404       .  A
C1199      C1263   1.474       .  S
C1200      H1203   1.082       .  S
C1204      C1205   1.393       .  A
C1204      C1209   1.403       .  A
C1204      C1710   1.481       .  S
C1205      C1206   1.404       .  A
C1205      H1210   1.081       .  S
C1206      C1207   1.406       .  A
C1206      C1332   1.475       .  S
C1207      C1208   1.407       .  A
C1207      H1211   1.083       .  S
C1208      C1209   1.407       .  A
C1208      C1253   1.481       .  S
C1209      H1212   1.082       .  S
C1213      C1250   1.460       .  S
N1214      N1231   1.323       .  A
N1214     Co1251   2.073       .  S
C1215      C1253   1.461       .  S
C1217      C1221   1.459       .  S
C1217      H1246   1.080       .  S
C1217      N1241   1.334       .  A
Co1218     N1236   2.091       .  S
Co1218     N1226   2.060       .  S
Co1218     N1846   2.060       .  S
Co1218     N1822   2.101       .  S
N1219     Co1220   2.099       .  S
Co1220     N1223   2.078       .  S
Co1220     N1828   2.077       .  S
Co1220     N1815   2.103       .  S
Co1220    Cl1262   2.478       .  S
C1221      C1268   1.472       .  S
C1221      N1259   1.351       .  A
N1222      N1229   1.317       .  A
N1222      N1252   1.321       .  A
N1222     Co1255   2.064       .  S
N1223      N1241   1.321       .  A
N1223      N1259   1.325       .  A
N1224      C1253   1.353       .  A
N1224      N1234   1.326       .  A
H1225      C1250   1.081       .  S
N1226      N1247   1.319       .  A
N1227      N1245   1.318       .  A
N1227      N1232   1.329       .  A
N1227     Co1808   2.103   1_545  S
C1228      C1256   1.450       .  S
C1228      C1295   1.471       .  S
C1228      N1232   1.356       .  A
N1229      C1244   1.349       .  A
N1229     Co1251   2.103       .  S
C1230      C1233   1.450       .  S
C1230      H1264   1.082       .  S
C1230      N1258   1.334       .  A
C1233      C1277   1.468       .  S
C1233      N1254   1.354       .  A
N1234     Co1806   2.101   1_545  S
N1235      C1261   1.338       .  A
N1235      N1237   1.320       .  A
N1235     Co1839   2.073   1_545  S
N1236      C1250   1.338       .  A
N1237      N1265   1.323       .  A
N1237     Co1843   2.091   1_545  S
H1238      C1261   1.081       .  S
H1239      C1256   1.082       .  S
N1240     Co1808   2.077   1_545  S
N1241     Co1255   2.082       .  S
N1242     Co1839   2.097   1_545  S
C1243      C1257   1.468       .  S
C1243      N1247   1.342       .  A
C1244      C1263   1.470       .  S
C1244      H1248   1.082       .  S
N1245      C1256   1.335       .  A
N1245     Co1843   2.061   1_545  S
C1249      C1261   1.459       .  S
C1249      C1286   1.474       .  S
C1249      N1265   1.351       .  A
Co1251     N1823   2.073       .  S
Co1251     N1830   2.097       .  S
Co1251    Cl1262   2.477       .  S
N1252      C1263   1.343       .  A
Co1255     N1825   2.091       .  S
Co1255     N1833   2.061       .  S
Co1255    Cl1262   2.420       .  S
N1258     Co1806   2.060   1_545  S
C1266      C1267   1.417       .  A
C1266      C1271   1.412       .  A
C1266      C1699   1.509       .  S
C1267      C1268   1.401       .  A
C1267      H1272   1.080       .  S
C1268      C1269   1.393       .  A
C1269      C1270   1.392       .  A
C1269      H1273   1.078       .  S
C1270      C1271   1.401       .  A
C1270      C1317   1.471       .  S
C1271      H1274   1.078       .  S
C1275      C1276   1.411       .  A
C1275      C1280   1.412       .  A
C1275      C1682   1.497       .  S
C1276      C1277   1.404       .  A
C1276      H1281   1.084       .  S
C1277      C1278   1.398       .  A
C1278      C1279   1.397       .  A
C1278      H1282   1.085       .  S
C1279      C1280   1.403       .  A
C1279      C1302   1.471       .  S
C1280      H1283   1.084       .  S
C1284      C1285   1.405       .  A
C1284      C1289   1.406       .  A
C1284      C1668   1.490       .  S
C1285      C1286   1.404       .  A
C1285      H1290   1.082       .  S
C1286      C1287   1.400       .  A
C1287      C1288   1.400       .  A
C1287      H1291   1.082       .  S
C1288      C1289   1.403       .  A
C1288      C1322   1.474       .  S
C1289      H1292   1.083       .  S
C1293      C1294   1.412       .  A
C1293      C1298   1.412       .  A
C1293      C1654   1.501       .  S
C1294      C1295   1.404       .  A
C1294      H1299   1.083       .  S
C1295      C1296   1.401       .  A
C1296      C1297   1.400       .  A
C1296      H1300   1.085       .  S
C1297      C1298   1.404       .  A
C1297      C1342   1.472       .  S
C1298      H1301   1.083       .  S
C1302      C1339   1.454       .  S
C1302      N1320   1.353       .  A
N1303      N1320   1.329       .  A
N1303      N1325   1.319       .  A
N1303     Co1340   2.097       .  S
C1304      C1342   1.466       .  S
C1304      H1349   1.082       .  S
C1304      N1329   1.347       .  A
H1305      C1346   1.081       .  S
C1306      C1310   1.456       .  S
C1306      H1335   1.082       .  S
C1306      N1330   1.337       .  A
Co1307     N1325   2.072       .  S
Co1307     N1315   2.095       .  S
Co1307     N1347   2.090       .  S
Co1307     N1323   2.077       .  S
Co1307    Cl1351   2.430       .  S
N1308      C1346   1.331       .  A
N1308      N1315   1.319       .  A
N1308     Co1309   2.060       .  S
Co1309     N1312   2.099       .  S
Co1309     N1329   2.097       .  S
Co1309     N1316   2.068       .  S
Co1309    Cl1351   2.472       .  S
C1310      N1348   1.354       .  A
N1311      N1318   1.319       .  A
N1311      N1341   1.323       .  A
N1311     Co1344   2.083       .  S
N1312      N1330   1.319       .  A
N1312      N1348   1.329       .  A
N1313      C1342   1.346       .  A
N1313      N1323   1.321       .  A
H1314      C1339   1.082       .  S
N1315      N1336   1.327       .  A
N1316      N1334   1.320       .  A
N1316      N1321   1.323       .  A
C1317      C1345   1.461       .  S
C1317      N1321   1.349       .  A
N1318      C1333   1.337       .  A
N1318     Co1340   2.070       .  S
C1319      C1322   1.462       .  S
C1319      H1353   1.081       .  S
C1319      N1347   1.339       .  A
C1322      N1343   1.349       .  A
N1323      N1329   1.319       .  A
N1324      C1350   1.347       .  A
N1324      N1326   1.319       .  A
N1324     Co1340   2.099       .  S
N1325      C1339   1.335       .  A
N1326      N1354   1.323       .  A
N1326     Co1344   2.081       .  S
H1327      C1350   1.082       .  S
H1328      C1345   1.081       .  S
N1330     Co1344   2.075       .  S
N1331      N1343   1.323       .  A
N1331      N1347   1.321       .  A
N1331     Co1340   2.072       .  S
C1332      C1346   1.456       .  S
C1332      N1336   1.354       .  A
C1333      C1352   1.460       .  S
C1333      H1337   1.081       .  S
N1334      C1345   1.334       .  A
N1334     Co1344   2.080       .  S
C1338      C1350   1.467       .  S
C1338      N1354   1.348       .  A
Co1340    Cl1351   2.473       .  S
N1341      C1352   1.349       .  A
Co1344    Cl1351   2.426       .  S
C1355      C1356   1.373       .  D
C1355      C2273   1.503       .  S
C1355      C1724   1.505       .  S
C1356      C2214   1.494       .  S
C1356      C1643   1.494       .  S
C1357      C1358   1.388   1_554  D
C1357      C1696   1.493       .  S
C1358      C1598   1.506       .  S
C1359      C1360   1.373       .  D
C1359      C1671   1.499       .  S
C1360      C1573   1.498       .  S
C1361      C1362   1.372   1_554  D
C1361      C2245   1.501       .  S
C1361      C1738   1.505       .  S
C1362      C2130   1.491       .  S
C1362      C1556   1.489       .  S
C1363      C1364   1.406       .  A
C1363      C1368   1.405       .  A
C1363      C1559   1.493       .  S
C1364      C1365   1.402       .  A
C1364      H1369   1.083       .  S
C1365      C1366   1.401       .  A
C1365      C1417   1.472       .  S
C1366      C1367   1.399       .  A
C1366      H1370   1.082       .  S
C1367      C1368   1.402       .  A
C1367      C1538   1.474       .  S
C1368      H1371   1.080       .  S
C1372      C1373   1.417       .  A
C1372      C1377   1.406       .  A
C1372      C1612   1.494       .  S
C1373      C1374   1.407       .  A
C1373      H1378   1.084       .  S
C1374      C1375   1.400       .  A
C1374      C1437   1.478       .  S
C1375      C1376   1.398       .  A
C1375      H1379   1.085       .  S
C1376      C1377   1.403       .  A
C1376      C1488   1.468       .  S
C1377      H1380   1.083       .  S
C1381      C1382   1.403       .  A
C1381      C1386   1.404       .  A
C1381      C1545   1.486       .  S
C1382      C1383   1.401       .  A
C1382      H1387   1.083       .  S
C1383      C1384   1.399       .  A
C1383      C1508   1.471       .  S
C1384      C1385   1.401       .  A
C1384      H1388   1.082       .  S
C1385      C1386   1.401       .  A
C1385      C1453   1.470       .  S
C1386      H1389   1.082       .  S
C1390      C1391   1.418       .  A
C1390      C1395   1.424       .  A
C1390      C1601   1.532       .  S
C1391      C1392   1.403       .  A
C1391      H1396   1.069       .  S
C1392      C1393   1.398       .  A
C1392      C1524   1.477       .  S
C1393      C1394   1.398       .  A
C1393      H1397   1.085       .  S
C1394      C1395   1.405       .  A
C1394      C1467   1.474       .  S
C1395      H1398   1.078       .  S
C1399      C1400   1.409       .  A
C1399      C1404   1.411       .  A
C1399      C1570   1.495       .  S
C1400      C1401   1.402       .  A
C1400      H1405   1.083       .  S
C1401      C1402   1.401       .  A
C1401      C1432   1.470       .  S
C1402      C1403   1.400       .  A
C1402      H1406   1.085       .  S
C1403      C1404   1.402       .  A
C1403      C1528   1.470       .  S
C1404      H1407   1.084       .  S
C1408      C1409   1.400       .  A
C1408      C1413   1.401       .  A
C1408      C1629   1.488       .  S
C1409      C1410   1.402       .  A
C1409      H1414   1.081       .  S
C1410      C1411   1.404       .  A
C1410      C1518   1.475       .  S
C1411      C1412   1.404       .  A
C1411      H1415   1.083       .  S
C1412      C1413   1.406       .  A
C1412      C1457   1.475       .  S
C1413      H1416   1.082       .  S
C1417      C1454   1.459       .  S
C1417      N1435   1.350       .  A
N1418      N1435   1.323       .  A
N1418      N1440   1.322       .  A
N1418     Co1455   2.077       .  S
C1419      C1457   1.457       .  S
C1419      H1464   1.081       .  S
C1419      N1444   1.334       .  A
H1420      C1461   1.081       .  S
C1421      C1425   1.457       .  S
C1421      H1450   1.080       .  S
C1421      N1445   1.333       .  A
Co1422     N1440   2.090       .  S
Co1422     N1430   2.065       .  S
Co1422     N1462   2.066       .  S
Co1422     N1438   2.101       .  S
Co1422    Cl1466   2.421       .  S
N1423      C1461   1.349       .  A
N1423      N1430   1.318       .  A
N1423     Co1424   2.100       .  S
Co1424     N1427   2.078       .  S
Co1424     N1444   2.068       .  S
Co1424     N1431   2.100       .  S
Co1424    Cl1466   2.478       .  S
C1425      C1481   1.471       .  S
C1425      N1463   1.351       .  A
N1426      N1433   1.318       .  A
N1426      N1456   1.321       .  A
N1426     Co1459   2.058       .  S
N1427      N1445   1.321       .  A
N1427      N1463   1.325       .  A
N1428      C1457   1.354       .  A
N1428      N1438   1.326       .  A
H1429      C1454   1.081       .  S
N1430      N1451   1.321       .  A
N1431      N1449   1.317       .  A
N1431      N1436   1.329       .  A
C1432      C1460   1.450       .  S
C1432      N1436   1.355       .  A
N1433      C1448   1.349       .  A
N1433     Co1455   2.108       .  S
C1434      C1437   1.452       .  S
C1434      H1468   1.082       .  S
C1434      N1462   1.335       .  A
C1437      N1458   1.356       .  A
N1438      N1444   1.321       .  A
N1439      C1465   1.338       .  A
N1439      N1441   1.321       .  A
N1439     Co1455   2.075       .  S
N1440      C1454   1.338       .  A
N1441      N1469   1.322       .  A
N1441     Co1459   2.085       .  S
H1442      C1465   1.081       .  S
H1443      C1460   1.082       .  S
N1445     Co1459   2.079       .  S
N1446      N1458   1.332       .  A
N1446      N1462   1.318       .  A
N1446     Co1455   2.105       .  S
C1447      C1461   1.468       .  S
C1447      C1472   1.473       .  S
C1447      N1451   1.343       .  A
C1448      C1467   1.470       .  S
C1448      H1452   1.081       .  S
N1449      C1460   1.335       .  A
N1449     Co1459   2.058       .  S
C1453      C1465   1.460       .  S
C1453      N1469   1.348       .  A
Co1455    Cl1466   2.478       .  S
N1456      C1467   1.342       .  A
Co1459    Cl1466   2.419       .  S
C1470      C1471   1.415       .  A
C1470      C1475   1.416       .  A
C1470      C1587   1.508       .  S
C1471      C1472   1.405       .  A
C1471      H1476   1.082       .  S
C1472      C1473   1.400       .  A
C1473      C1474   1.400       .  A
C1473      H1477   1.085       .  S
C1474      C1475   1.405       .  A
C1474      C1496   1.477       .  S
C1475      H1478   1.083       .  S
C1479      C1480   1.407       .  A
C1479      C1484   1.409       .  A
C1479      C1640   1.488       .  S
C1480      C1481   1.400       .  A
C1480      H1485   1.083       .  S
C1481      C1482   1.397       .  A
C1482      C1483   1.396       .  A
C1482      H1486   1.078       .  S
C1483      C1484   1.401       .  A
C1483      C1503   1.473       .  S
C1484      H1487   1.083       .  S
C1488      C1525   1.455       .  S
C1488      N1506   1.352       .  A
N1489      N1506   1.327       .  A
N1489      N1511   1.319       .  A
C1490      C1528   1.465       .  S
C1490      H1535   1.081       .  S
C1490      N1515   1.346       .  A
H1491      C1532   1.081       .  S
C1492      C1496   1.456       .  S
C1492      H1521   1.082       .  S
C1492      N1516   1.337       .  A
Co1493     N1533   2.086       .  S
Co1493     N1509   2.074       .  S
Co1493    Cl2125   2.431   1_545  S
N1494      C1532   1.334       .  A
N1494      N1501   1.320       .  A
Co1495     N2103   2.095       .  S
Co1495     N1502   2.071       .  S
Co1495    Cl1537   2.473       .  S
C1496      N1534   1.355       .  A
N1497      N1504   1.319       .  A
N1497      N1527   1.324       .  A
N1498      N1516   1.320       .  A
N1498      N1534   1.330       .  A
N1499      C1528   1.346       .  A
N1499      N1509   1.321       .  A
H1500      C1525   1.082       .  S
N1501      N1522   1.325       .  A
N1502      N1520   1.320       .  A
N1502      N1507   1.324       .  A
C1503      C1531   1.461       .  S
C1503      N1507   1.349       .  A
N1504      C1519   1.336       .  A
C1505      C1508   1.461       .  S
C1505      H1539   1.081       .  S
C1505      N1533   1.339       .  A
C1508      N1529   1.348       .  A
N1509      N1515   1.319       .  A
N1510      C1536   1.347       .  A
N1510      N1512   1.318       .  A
N1510     Co1526   2.095       .  S
N1511      C1525   1.336       .  A
N1512      N1540   1.323       .  A
N1512     Co1530   2.084       .  S
H1513      C1536   1.082       .  S
H1514      C1531   1.081       .  S
N1515     Co2083   2.095   1_545  S
N1517      N1529   1.321       .  A
N1517      N1533   1.320       .  A
N1517     Co2114   2.068   1_545  S
C1518      C1532   1.459       .  S
C1518      N1522   1.352       .  A
C1519      C1538   1.458       .  S
C1519      H1523   1.081       .  S
N1520      C1531   1.335       .  A
N1520     Co1530   2.083       .  S
C1524      C1536   1.467       .  S
C1524      N1540   1.349       .  A
Co1526     N2105   2.068       .  S
Co1526    Cl1537   2.471       .  S
N1527      C1538   1.352       .  A
Co1530    Cl1537   2.427       .  S
Cl1537    Co2081   2.431       .  S
C1541      C1542   1.404       .  A
C1541      C1546   1.400       .  A
C1541      H2136   1.084       .  S
C1542      C1543   1.408   1_565  A
C1542      C1950   1.491       .  S
C1543      C1544   1.401       .  A
C1543      N1550   1.431       .  S
C1544      C1545   1.407       .  A
C1544      H1549   1.083       .  S
C1545      C1546   1.415   1_545  A
C1546      N1547   1.439       .  S
N1547      H2139   1.046       .  S
N1547      H1552   1.046       .  S
H1548      C2129   1.084       .  S
N1550      H1553   1.046       .  S
N1550      H1554   1.045       .  S
H1551      N2135   1.046       .  S
C1555      C1556   1.401       .  A
C1555      C1560   1.399       .  A
C1555      H1562   1.084       .  S
C1556      C1557   1.410       .  A
C1557      C1558   1.405       .  A
C1557      N1564   1.437       .  S
C1558      C1559   1.409       .  A
C1558      H1563   1.083       .  S
C1559      C1560   1.417       .  A
C1560      N1561   1.439       .  S
N1561      H1565   1.046       .  S
N1561      H1566   1.046       .  S
N1564      H1567   1.042   1_556  S
N1564      H1568   1.046       .  S
C1569      C1570   1.409       .  A
C1569      C1574   1.403       .  A
C1569      H1576   1.083       .  S
C1570      C1571   1.420       .  A
C1571      C1572   1.403       .  A
C1571      N1578   1.437       .  S
C1572      C1573   1.407       .  A
C1572      H1577   1.083       .  S
C1573      C1574   1.409       .  A
C1574      N1575   1.438       .  S
N1575      H1579   1.045       .  S
N1575      H1580   1.046       .  S
N1578      H1581   1.043       .  S
N1578      H1582   1.045       .  S
C1583      C1584   1.408   1_655  A
C1583      C1588   1.412       .  A
C1583      H1590   1.083       .  S
C1584      C1585   1.415       .  A
C1585      C1586   1.400   1_455  A
C1586      C1587   1.409       .  A
C1586      H1591   1.082   1_655  S
C1587      C1588   1.418       .  A
C1588      N1589   1.437       .  S
N1589      H1593   1.046       .  S
N1589      H1594   1.046       .  S
N1592      H1595   1.046       .  S
N1592      H1596   1.043       .  S
C1597      C1598   1.395       .  A
C1597      C1602   1.398       .  A
C1597      H1604   1.084       .  S
C1598      C1599   1.402       .  A
C1599      C1600   1.408       .  A
C1599      N1606   1.432       .  S
C1600      C1601   1.421       .  A
C1600      H1605   1.079       .  S
C1601      C1602   1.438       .  A
C1602      N1603   1.430       .  S
N1603      H1607   1.045       .  S
N1603      H1608   1.043       .  S
N1606      H1609   1.046       .  S
N1606      H1610   1.045       .  S
C1611      C1612   1.396       .  A
C1611      C1616   1.398       .  A
C1611      H1618   1.085       .  S
C1612      C1613   1.417       .  A
C1613      C1614   1.411       .  A
C1613      N1620   1.432       .  S
C1614      C1615   1.414   1_655  A
C1614      H1619   1.083   1_655  S
C1615      C1616   1.424   1_455  A
C1616      N1617   1.427       .  S
N1617      H1621   1.046       .  S
N1620      H1623   1.043       .  S
N1620      H1624   1.045       .  S
C1625      C1626   1.404   1_545  A
C1625      C1630   1.404       .  A
C1625      H1632   1.084       .  S
C1626      C1627   1.409       .  A
C1626      C1944   1.494       .  S
C1627      C1628   1.398   1_565  A
C1627      N2222   1.438       .  S
C1628      C1629   1.405       .  A
C1628      H1633   1.083   1_545  S
C1629      C1630   1.421       .  A
C1630      N1631   1.439       .  S
N1631      H1635   1.046       .  S
N1631      H1636   1.042       .  S
N1634      C2215   1.438       .  S
N1634      H1637   1.046       .  S
N1634      H1638   1.046       .  S
C1639      C1640   1.405       .  A
C1639      C1644   1.399       .  A
C1639      H1646   1.083       .  S
C1640      C1641   1.421       .  A
C1641      C1642   1.400       .  A
C1641      N1648   1.437       .  S
C1642      C1643   1.403       .  A
C1642      H1647   1.083       .  S
C1643      C1644   1.411       .  A
C1644      N1645   1.438       .  S
N1645      H1649   1.046       .  S
N1645      H1650   1.046       .  S
N1648      H1651   1.043       .  S
N1648      H1652   1.045       .  S
C1653      C1654   1.408       .  A
C1653      C1658   1.407   1_545  A
C1653      H1660   1.083       .  S
C1654      C1655   1.416       .  A
C1655      C1656   1.401       .  A
C1655      N1662   1.433       .  S
C1656      C1657   1.402   1_545  A
C1656      H1661   1.084       .  S
C1657      C1658   1.421       .  A
C1657      C1949   1.501       .  S
C1658      N2247   1.439       .  S
N1659      C2246   1.439       .  S
N1659      H1663   1.046       .  S
N1659      H1664   1.043       .  S
N1662      H1665   1.046       .  S
N1662      H1666   1.046       .  S
C1667      C1668   1.404       .  A
C1667      C1672   1.398       .  A
C1667      H1674   1.084       .  S
C1668      C1669   1.421       .  A
C1669      C1670   1.403       .  A
C1669      N1676   1.437       .  S
C1670      C1671   1.406       .  A
C1670      H1675   1.083       .  S
C1671      C1672   1.410       .  A
C1672      N1673   1.433       .  S
N1673      H1677   1.046       .  S
N1673      H1678   1.046       .  S
N1676      H1679   1.043       .  S
N1676      H1680   1.045       .  S
C1681      C1682   1.408       .  A
C1681      C1686   1.401       .  A
C1681      H1688   1.083       .  S
C1682      C1683   1.421       .  A
C1683      C1684   1.405   1_545  A
C1683      N1690   1.437       .  S
C1684      C1685   1.408       .  A
C1684      H1689   1.083       .  S
C1685      C1686   1.408   1_565  A
C1685      C1943   1.503       .  S
C1686      N2275   1.432       .  S
N1687      C2274   1.432       .  S
N1687      H1691   1.046       .  S
N1687      H1692   1.045       .  S
N1690      H1693   1.043       .  S
N1690      H1694   1.045       .  S
C1695      C1696   1.399       .  A
C1695      C1700   1.405       .  A
C1695      H1702   1.084       .  S
C1696      C1697   1.399       .  A
C1697      C1698   1.400       .  A
C1697      N1704   1.432       .  S
C1698      C1699   1.414       .  A
C1698      H1703   1.081       .  S
C1699      C1700   1.428       .  A
C1700      N1701   1.438       .  S
N1701      H1705   1.046       .  S
N1701      H1706   1.046       .  S
N1704      H1707   1.046       .  S
N1704      H1708   1.045       .  S
C1709      C1710   1.389       .  A
C1709      C1714   1.391   1_655  A
C1709      H1716   1.086       .  S
C1710      C1711   1.417       .  A
C1711      C1712   1.411       .  A
C1711      N1718   1.438       .  S
C1712      C1713   1.414       .  A
C1712      H1717   1.082       .  S
C1713      C1714   1.431   1_655  A
N1715      H1719   1.046       .  S
N1715      H1720   1.046       .  S
N1718      H1721   1.043       .  S
N1718      H1722   1.045       .  S
C1723      C1724   1.407       .  A
C1723      C1728   1.410       .  A
C1723      H1730   1.083       .  S
C1724      C1725   1.413       .  A
C1725      C1726   1.398       .  A
C1725      N1732   1.433       .  S
C1726      C1727   1.410       .  A
C1726      H1731   1.082       .  S
C1727      C1728   1.418       .  A
C1728      N1729   1.437       .  S
N1729      H1733   1.046       .  S
N1729      H1734   1.046       .  S
N1732      H1735   1.046       .  S
N1732      H1736   1.043       .  S
C1737      C1738   1.407       .  A
C1737      C1742   1.406       .  A
C1737      H1744   1.082       .  S
C1738      C1739   1.409       .  A
C1739      C1740   1.401       .  A
C1739      N1746   1.433       .  S
C1740      C1741   1.409       .  A
C1740      H1745   1.083       .  S
C1741      C1742   1.422       .  A
C1742      N1743   1.439       .  S
N1743      H1747   1.046       .  S
N1743      H1748   1.043       .  S
N1746      H1749   1.045       .  S
N1746      H1750   1.046       .  S
C1751      C1752   1.404       .  A
C1751      C1756   1.406   1_455  A
C1752      C1753   1.413   1_455  A
C1753      C1754   1.389       .  A
C1753      N1760   1.433       .  S
C1754      C1755   1.404       .  A
C1754      H1759   1.083       .  S
C1755      C1756   1.416       .  A
C1756      N1757   1.437       .  S
N1757      H1762   1.045       .  S
N1760      H1763   1.046       .  S
N1760      H1764   1.042       .  S
C1765      C1766   1.404       .  A
C1765      C1770   1.405       .  A
C1765      C2343   1.487       .  S
C1766      C1767   1.399       .  A
C1766      H1771   1.081       .  S
C1767      C1768   1.400       .  A
C1767      C1940   1.472       .  S
C1768      C1769   1.401       .  A
C1768      H1772   1.082       .  S
C1769      C1770   1.403       .  A
C1769      C1801   1.472       .  S
C1770      H1773   1.082       .  S
C1774      C1775   1.411       .  A
C1774      C1779   1.412       .  A
C1774      C2329   1.498       .  S
C1775      C1776   1.403       .  A
C1775      H1780   1.084       .  S
C1776      C1777   1.400       .  A
C1776      C1831   1.469       .  S
C1777      C1778   1.400       .  A
C1777      H1781   1.085       .  S
C1778      C1779   1.404       .  A
C1778      C1898   1.473       .  S
C1779      H1782   1.084       .  S
C1783      C1784   1.414       .  A
C1783      C1788   1.413       .  A
C1783      C2315   1.504       .  S
C1784      C1785   1.404       .  A
C1784      H1789   1.083       .  S
C1785      C1786   1.402       .  A
C1785      C1926   1.475       .  S
C1786      C1787   1.402       .  A
C1786      H1790   1.084       .  S
C1787      C1788   1.404       .  A
C1787      C1851   1.474       .  S
C1788      H1791   1.082       .  S
C1792      C1793   1.393       .  A
C1792      C1797   1.403       .  A
C1792      C2298   1.481       .  S
C1793      C1794   1.404       .  A
C1793      H1798   1.081       .  S
C1794      C1795   1.406       .  A
C1794      C1920   1.475       .  S
C1795      C1796   1.407       .  A
C1795      H1799   1.083       .  S
C1796      C1797   1.407       .  A
C1796      C1841   1.481       .  S
C1797      H1800   1.082       .  S
C1801      C1838   1.460       .  S
N1802      N1819   1.323       .  A
N1802     Co1839   2.073       .  S
C1803      C1841   1.461       .  S
C1805      C1809   1.459       .  S
C1805      H1834   1.080       .  S
C1805      N1829   1.334       .  A
Co1806     N1824   2.091       .  S
Co1806     N1814   2.060       .  S
N1807     Co1808   2.099       .  S
Co1808     N1811   2.078       .  S
Co1808    Cl1850   2.478       .  S
C1809      C1856   1.472       .  S
C1809      N1847   1.351       .  A
N1810      N1817   1.317       .  A
N1810      N1840   1.321       .  A
N1810     Co1843   2.064       .  S
N1811      N1829   1.321       .  A
N1811      N1847   1.325       .  A
N1812      C1841   1.353       .  A
N1812      N1822   1.326       .  A
H1813      C1838   1.081       .  S
N1814      N1835   1.319       .  A
N1815      N1833   1.318       .  A
N1815      N1820   1.329       .  A
C1816      C1844   1.450       .  S
C1816      C1883   1.471       .  S
C1816      N1820   1.356       .  A
N1817      C1832   1.349       .  A
N1817     Co1839   2.103       .  S
C1818      C1821   1.450       .  S
C1818      H1852   1.082       .  S
C1818      N1846   1.334       .  A
C1821      C1865   1.468       .  S
C1821      N1842   1.354       .  A
N1823      C1849   1.338       .  A
N1823      N1825   1.320       .  A
N1824      C1838   1.338       .  A
N1825      N1853   1.323       .  A
H1826      C1849   1.081       .  S
H1827      C1844   1.082       .  S
N1829     Co1843   2.082       .  S
C1831      C1845   1.468       .  S
C1831      N1835   1.342       .  A
C1832      C1851   1.470       .  S
C1832      H1836   1.082       .  S
N1833      C1844   1.335       .  A
C1837      C1849   1.459       .  S
C1837      C1874   1.474       .  S
C1837      N1853   1.351       .  A
Co1839    Cl1850   2.477       .  S
N1840      C1851   1.343       .  A
Co1843    Cl1850   2.420       .  S
C1854      C1855   1.417       .  A
C1854      C1859   1.412       .  A
C1854      C2287   1.509       .  S
C1855      C1856   1.401       .  A
C1855      H1860   1.080       .  S
C1856      C1857   1.393       .  A
C1857      C1858   1.392       .  A
C1857      H1861   1.078       .  S
C1858      C1859   1.401       .  A
C1858      C1905   1.471       .  S
C1859      H1862   1.078       .  S
C1863      C1864   1.411       .  A
C1863      C1868   1.412       .  A
C1863      C2270   1.497       .  S
C1864      C1865   1.404       .  A
C1864      H1869   1.084       .  S
C1865      C1866   1.398       .  A
C1866      C1867   1.397       .  A
C1866      H1870   1.085       .  S
C1867      C1868   1.403       .  A
C1867      C1890   1.471       .  S
C1868      H1871   1.084       .  S
C1872      C1873   1.405       .  A
C1872      C1877   1.406       .  A
C1872      C2256   1.490       .  S
C1873      C1874   1.404       .  A
C1873      H1878   1.082       .  S
C1874      C1875   1.400       .  A
C1875      C1876   1.400       .  A
C1875      H1879   1.082       .  S
C1876      C1877   1.403       .  A
C1876      C1910   1.474       .  S
C1877      H1880   1.083       .  S
C1881      C1882   1.412       .  A
C1881      C1886   1.412       .  A
C1881      C2242   1.501       .  S
C1882      C1883   1.404       .  A
C1882      H1887   1.083       .  S
C1883      C1884   1.401       .  A
C1884      C1885   1.400       .  A
C1884      H1888   1.085       .  S
C1885      C1886   1.404       .  A
C1885      C1930   1.472       .  S
C1886      H1889   1.083       .  S
C1890      C1927   1.454       .  S
C1890      N1908   1.353       .  A
N1891      N1908   1.329       .  A
N1891      N1913   1.319       .  A
N1891     Co1928   2.097       .  S
C1892      C1930   1.466       .  S
C1892      H1937   1.082       .  S
C1892      N1917   1.347       .  A
H1893      C1934   1.081       .  S
C1894      C1898   1.456       .  S
C1894      H1923   1.082       .  S
C1894      N1918   1.337       .  A
Co1895     N1913   2.072       .  S
Co1895     N1903   2.095       .  S
Co1895     N1935   2.090       .  S
Co1895     N1911   2.077       .  S
Co1895    Cl1939   2.430       .  S
N1896      C1934   1.331       .  A
N1896      N1903   1.319       .  A
N1896     Co1897   2.060       .  S
Co1897     N1900   2.099       .  S
Co1897     N1917   2.097       .  S
Co1897     N1904   2.068       .  S
Co1897    Cl1939   2.472       .  S
C1898      N1936   1.354       .  A
N1899      N1906   1.319       .  A
N1899      N1929   1.323       .  A
N1899     Co1932   2.083       .  S
N1900      N1918   1.319       .  A
N1900      N1936   1.329       .  A
N1901      C1930   1.346       .  A
N1901      N1911   1.321       .  A
H1902      C1927   1.082       .  S
N1903      N1924   1.327       .  A
N1904      N1922   1.320       .  A
N1904      N1909   1.323       .  A
C1905      C1933   1.461       .  S
C1905      N1909   1.349       .  A
N1906      C1921   1.337       .  A
N1906     Co1928   2.070       .  S
C1907      C1910   1.462       .  S
C1907      H1941   1.081       .  S
C1907      N1935   1.339       .  A
C1910      N1931   1.349       .  A
N1911      N1917   1.319       .  A
N1912      C1938   1.347       .  A
N1912      N1914   1.319       .  A
N1912     Co1928   2.099       .  S
N1913      C1927   1.335       .  A
N1914      N1942   1.323       .  A
N1914     Co1932   2.081       .  S
H1915      C1938   1.082       .  S
H1916      C1933   1.081       .  S
N1918     Co1932   2.075       .  S
N1919      N1931   1.323       .  A
N1919      N1935   1.321       .  A
N1919     Co1928   2.072       .  S
C1920      C1934   1.456       .  S
C1920      N1924   1.354       .  A
C1921      C1940   1.460       .  S
C1921      H1925   1.081       .  S
N1922      C1933   1.334       .  A
N1922     Co1932   2.080       .  S
C1926      C1938   1.467       .  S
C1926      N1942   1.348       .  A
Co1928    Cl1939   2.473       .  S
N1929      C1940   1.349       .  A
Co1932    Cl1939   2.426       .  S
C1943      C1944   1.373       .  D
C1943      C2312   1.505       .  S
C1944      C2231   1.494       .  S
C1945      C1946   1.388   1_554  D
C1945      C2284   1.493       .  S
C1946      C2186   1.506       .  S
C1947      C1948   1.373       .  D
C1947      C2259   1.499       .  S
C1948      C2161   1.498       .  S
C1949      C1950   1.372   1_554  D
C1949      C2326   1.505       .  S
C1950      C2144   1.489       .  S
C1951      C1952   1.406       .  A
C1951      C1956   1.405       .  A
C1951      C2147   1.493       .  S
C1952      C1953   1.402       .  A
C1952      H1957   1.083       .  S
C1953      C1954   1.401       .  A
C1953      C2005   1.472       .  S
C1954      C1955   1.399       .  A
C1954      H1958   1.082       .  S
C1955      C1956   1.402       .  A
C1955      C2126   1.474       .  S
C1956      H1959   1.080       .  S
C1960      C1961   1.417       .  A
C1960      C1965   1.406       .  A
C1960      C2200   1.494       .  S
C1961      C1962   1.407       .  A
C1961      H1966   1.084       .  S
C1962      C1963   1.400       .  A
C1962      C2025   1.478       .  S
C1963      C1964   1.398       .  A
C1963      H1967   1.085       .  S
C1964      C1965   1.403       .  A
C1964      C2076   1.468       .  S
C1965      H1968   1.083       .  S
C1969      C1970   1.403       .  A
C1969      C1974   1.404       .  A
C1969      C2133   1.486       .  S
C1970      C1971   1.401       .  A
C1970      H1975   1.083       .  S
C1971      C1972   1.399       .  A
C1971      C2096   1.471       .  S
C1972      C1973   1.401       .  A
C1972      H1976   1.082       .  S
C1973      C1974   1.401       .  A
C1973      C2041   1.470       .  S
C1974      H1977   1.082       .  S
C1978      C1979   1.418       .  A
C1978      C1983   1.424       .  A
C1978      C2189   1.532       .  S
C1979      C1980   1.403       .  A
C1979      H1984   1.069       .  S
C1980      C1981   1.398       .  A
C1980      C2112   1.477       .  S
C1981      C1982   1.398       .  A
C1981      H1985   1.085       .  S
C1982      C1983   1.405       .  A
C1982      C2055   1.474       .  S
C1983      H1986   1.078       .  S
C1987      C1988   1.409       .  A
C1987      C1992   1.411       .  A
C1987      C2158   1.495       .  S
C1988      C1989   1.402       .  A
C1988      H1993   1.083       .  S
C1989      C1990   1.401       .  A
C1989      C2020   1.470       .  S
C1990      C1991   1.400       .  A
C1990      H1994   1.085       .  S
C1991      C1992   1.402       .  A
C1991      C2116   1.470       .  S
C1992      H1995   1.084       .  S
C1996      C1997   1.400       .  A
C1996      C2001   1.401       .  A
C1996      C2217   1.488       .  S
C1997      C1998   1.402       .  A
C1997      H2002   1.081       .  S
C1998      C1999   1.404       .  A
C1998      C2106   1.475       .  S
C1999      C2000   1.404       .  A
C1999      H2003   1.083       .  S
C2000      C2001   1.406       .  A
C2000      C2045   1.475       .  S
C2001      H2004   1.082       .  S
C2005      C2042   1.459       .  S
C2005      N2023   1.350       .  A
N2006      N2023   1.323       .  A
N2006      N2028   1.322       .  A
N2006     Co2043   2.077       .  S
C2007      C2045   1.457       .  S
C2007      H2052   1.081       .  S
C2007      N2032   1.334       .  A
H2008      C2049   1.081       .  S
C2009      C2013   1.457       .  S
C2009      H2038   1.080       .  S
C2009      N2033   1.333       .  A
Co2010     N2028   2.090       .  S
Co2010     N2018   2.065       .  S
Co2010     N2050   2.066       .  S
Co2010     N2026   2.101       .  S
Co2010    Cl2054   2.421       .  S
N2011      C2049   1.349       .  A
N2011      N2018   1.318       .  A
N2011     Co2012   2.100       .  S
Co2012     N2015   2.078       .  S
Co2012     N2032   2.068       .  S
Co2012     N2019   2.100       .  S
Co2012    Cl2054   2.478       .  S
C2013      C2069   1.471       .  S
C2013      N2051   1.351       .  A
N2014      N2021   1.318       .  A
N2014      N2044   1.321       .  A
N2014     Co2047   2.058       .  S
N2015      N2033   1.321       .  A
N2015      N2051   1.325       .  A
N2016      C2045   1.354       .  A
N2016      N2026   1.326       .  A
H2017      C2042   1.081       .  S
N2018      N2039   1.321       .  A
N2019      N2037   1.317       .  A
N2019      N2024   1.329       .  A
C2020      C2048   1.450       .  S
C2020      N2024   1.355       .  A
N2021      C2036   1.349       .  A
N2021     Co2043   2.108       .  S
C2022      C2025   1.452       .  S
C2022      H2056   1.082       .  S
C2022      N2050   1.335       .  A
C2025      N2046   1.356       .  A
N2026      N2032   1.321       .  A
N2027      C2053   1.338       .  A
N2027      N2029   1.321       .  A
N2027     Co2043   2.075       .  S
N2028      C2042   1.338       .  A
N2029      N2057   1.322       .  A
N2029     Co2047   2.085       .  S
H2030      C2053   1.081       .  S
H2031      C2048   1.082       .  S
N2033     Co2047   2.079       .  S
N2034      N2046   1.332       .  A
N2034      N2050   1.318       .  A
N2034     Co2043   2.105       .  S
C2035      C2049   1.468       .  S
C2035      C2060   1.473       .  S
C2035      N2039   1.343       .  A
C2036      C2055   1.470       .  S
C2036      H2040   1.081       .  S
N2037      C2048   1.335       .  A
N2037     Co2047   2.058       .  S
C2041      C2053   1.460       .  S
C2041      N2057   1.348       .  A
Co2043    Cl2054   2.478       .  S
N2044      C2055   1.342       .  A
Co2047    Cl2054   2.419       .  S
C2058      C2059   1.415       .  A
C2058      C2063   1.416       .  A
C2058      C2175   1.508       .  S
C2059      C2060   1.405       .  A
C2059      H2064   1.082       .  S
C2060      C2061   1.400       .  A
C2061      C2062   1.400       .  A
C2061      H2065   1.085       .  S
C2062      C2063   1.405       .  A
C2062      C2084   1.477       .  S
C2063      H2066   1.083       .  S
C2067      C2068   1.407       .  A
C2067      C2072   1.409       .  A
C2067      C2228   1.488       .  S
C2068      C2069   1.400       .  A
C2068      H2073   1.083       .  S
C2069      C2070   1.397       .  A
C2070      C2071   1.396       .  A
C2070      H2074   1.078       .  S
C2071      C2072   1.401       .  A
C2071      C2091   1.473       .  S
C2072      H2075   1.083       .  S
C2076      C2113   1.455       .  S
C2076      N2094   1.352       .  A
N2077      N2094   1.327       .  A
N2077      N2099   1.319       .  A
C2078      C2116   1.465       .  S
C2078      H2123   1.081       .  S
C2078      N2103   1.346       .  A
H2079      C2120   1.081       .  S
C2080      C2084   1.456       .  S
C2080      H2109   1.082       .  S
C2080      N2104   1.337       .  A
Co2081     N2121   2.086       .  S
Co2081     N2097   2.074       .  S
N2082      C2120   1.334       .  A
N2082      N2089   1.320       .  A
Co2083     N2090   2.071       .  S
Co2083    Cl2125   2.473       .  S
C2084      N2122   1.355       .  A
N2085      N2092   1.319       .  A
N2085      N2115   1.324       .  A
N2086      N2104   1.320       .  A
N2086      N2122   1.330       .  A
N2087      C2116   1.346       .  A
N2087      N2097   1.321       .  A
H2088      C2113   1.082       .  S
N2089      N2110   1.325       .  A
N2090      N2108   1.320       .  A
N2090      N2095   1.324       .  A
C2091      C2119   1.461       .  S
C2091      N2095   1.349       .  A
N2092      C2107   1.336       .  A
C2093      C2096   1.461       .  S
C2093      H2127   1.081       .  S
C2093      N2121   1.339       .  A
C2096      N2117   1.348       .  A
N2097      N2103   1.319       .  A
N2098      C2124   1.347       .  A
N2098      N2100   1.318       .  A
N2098     Co2114   2.095       .  S
N2099      C2113   1.336       .  A
N2100      N2128   1.323       .  A
N2100     Co2118   2.084       .  S
H2101      C2124   1.082       .  S
H2102      C2119   1.081       .  S
N2105      N2117   1.321       .  A
N2105      N2121   1.320       .  A
C2106      C2120   1.459       .  S
C2106      N2110   1.352       .  A
C2107      C2126   1.458       .  S
C2107      H2111   1.081       .  S
N2108      C2119   1.335       .  A
N2108     Co2118   2.083       .  S
C2112      C2124   1.467       .  S
C2112      N2128   1.349       .  A
Co2114    Cl2125   2.471       .  S
N2115      C2126   1.352       .  A
Co2118    Cl2125   2.427       .  S
C2129      C2130   1.404       .  A
C2129      C2134   1.400       .  A
C2130      C2131   1.408       .  A
C2131      C2132   1.401       .  A
C2131      N2138   1.431       .  S
C2132      C2133   1.407       .  A
C2132      H2137   1.083       .  S
C2133      C2134   1.415       .  A
C2134      N2135   1.439       .  S
N2135      H2140   1.046       .  S
N2138      H2141   1.046       .  S
N2138      H2142   1.045       .  S
C2143      C2144   1.401       .  A
C2143      C2148   1.399       .  A
C2143      H2150   1.084       .  S
C2144      C2145   1.410       .  A
C2145      C2146   1.405       .  A
C2145      N2152   1.437       .  S
C2146      C2147   1.409       .  A
C2146      H2151   1.083       .  S
C2147      C2148   1.417       .  A
C2148      N2149   1.439       .  S
N2149      H2153   1.046   1_565  S
N2149      H2154   1.046       .  S
N2152      H2155   1.042   1_556  S
N2152      H2156   1.046       .  S
C2157      C2158   1.409       .  A
C2157      C2162   1.403       .  A
C2157      H2164   1.083       .  S
C2158      C2159   1.420       .  A
C2159      C2160   1.403       .  A
C2159      N2166   1.437       .  S
C2160      C2161   1.407       .  A
C2160      H2165   1.083       .  S
C2161      C2162   1.409       .  A
C2162      N2163   1.438       .  S
N2163      H2167   1.045       .  S
N2163      H2168   1.046       .  S
N2166      H2169   1.043       .  S
N2166      H2170   1.045       .  S
C2171      C2172   1.408   1_655  A
C2171      C2176   1.412       .  A
C2171      H2178   1.083       .  S
C2172      C2173   1.415       .  A
C2173      C2174   1.400   1_455  A
C2174      C2175   1.409       .  A
C2174      H2179   1.082   1_655  S
C2175      C2176   1.418       .  A
C2176      N2177   1.437       .  S
N2177      H2181   1.046       .  S
N2177      H2182   1.046       .  S
N2180      H2183   1.046       .  S
N2180      H2184   1.043       .  S
C2185      C2186   1.395       .  A
C2185      C2190   1.398       .  A
C2185      H2192   1.084       .  S
C2186      C2187   1.402       .  A
C2187      C2188   1.408       .  A
C2187      N2194   1.432       .  S
C2188      C2189   1.421       .  A
C2188      H2193   1.079       .  S
C2189      C2190   1.438       .  A
C2190      N2191   1.430       .  S
N2191      H2195   1.045       .  S
N2191      H2196   1.043       .  S
N2194      H2197   1.046       .  S
N2194      H2198   1.045       .  S
C2199      C2200   1.396       .  A
C2199      C2204   1.398       .  A
C2199      H2206   1.085       .  S
C2200      C2201   1.417       .  A
C2201      C2202   1.411       .  A
C2201      N2208   1.432       .  S
C2202      C2203   1.414   1_655  A
C2202      H2207   1.083   1_655  S
C2203      C2204   1.424   1_455  A
C2204      N2205   1.427       .  S
N2205      H2209   1.046       .  S
N2208      H2211   1.043       .  S
N2208      H2212   1.045       .  S
C2213      C2214   1.404       .  A
C2213      C2218   1.404       .  A
C2213      H2220   1.084       .  S
C2214      C2215   1.409       .  A
C2215      C2216   1.398       .  A
C2216      C2217   1.405       .  A
C2216      H2221   1.083       .  S
C2217      C2218   1.421       .  A
C2218      N2219   1.439       .  S
N2219      H2223   1.046       .  S
N2219      H2224   1.042       .  S
N2222      H2225   1.046       .  S
N2222      H2226   1.046       .  S
C2227      C2228   1.405       .  A
C2227      C2232   1.399       .  A
C2227      H2234   1.083       .  S
C2228      C2229   1.421       .  A
C2229      C2230   1.400       .  A
C2229      N2236   1.437       .  S
C2230      C2231   1.403       .  A
C2230      H2235   1.083       .  S
C2231      C2232   1.411       .  A
C2232      N2233   1.438   1_565  S
N2233      H2237   1.046       .  S
N2233      H2238   1.046       .  S
N2236      H2239   1.043       .  S
N2236      H2240   1.045       .  S
C2241      C2242   1.408       .  A
C2241      C2246   1.407       .  A
C2241      H2248   1.083       .  S
C2242      C2243   1.416       .  A
C2243      C2244   1.401       .  A
C2243      N2250   1.433       .  S
C2244      C2245   1.402       .  A
C2244      H2249   1.084       .  S
C2245      C2246   1.421       .  A
N2247      H2251   1.046       .  S
N2247      H2252   1.043       .  S
N2250      H2253   1.046       .  S
N2250      H2254   1.046       .  S
C2255      C2256   1.404       .  A
C2255      C2260   1.398       .  A
C2255      H2262   1.084       .  S
C2256      C2257   1.421       .  A
C2257      C2258   1.403       .  A
C2257      N2264   1.437       .  S
C2258      C2259   1.406       .  A
C2258      H2263   1.083       .  S
C2259      C2260   1.410       .  A
C2260      N2261   1.433       .  S
N2261      H2265   1.046       .  S
N2261      H2266   1.046       .  S
N2264      H2267   1.043       .  S
N2264      H2268   1.045       .  S
C2269      C2270   1.408       .  A
C2269      C2274   1.401       .  A
C2269      H2276   1.083       .  S
C2270      C2271   1.421       .  A
C2271      C2272   1.405       .  A
C2271      N2278   1.437       .  S
C2272      C2273   1.408       .  A
C2272      H2277   1.083       .  S
C2273      C2274   1.408       .  A
N2275      H2279   1.046       .  S
N2275      H2280   1.045       .  S
N2278      H2281   1.043       .  S
N2278      H2282   1.045       .  S
C2283      C2284   1.399       .  A
C2283      C2288   1.405       .  A
C2283      H2290   1.084       .  S
C2284      C2285   1.399       .  A
C2285      C2286   1.400       .  A
C2285      N2292   1.432       .  S
C2286      C2287   1.414       .  A
C2286      H2291   1.081       .  S
C2287      C2288   1.428       .  A
C2288      N2289   1.438       .  S
N2289      H2293   1.046       .  S
N2289      H2294   1.046       .  S
N2292      H2295   1.046       .  S
N2292      H2296   1.045       .  S
C2297      C2298   1.389       .  A
C2297      C2302   1.391   1_655  A
C2297      H2304   1.086       .  S
C2298      C2299   1.417       .  A
C2299      C2300   1.411       .  A
C2299      N2306   1.438       .  S
C2300      C2301   1.414       .  A
C2300      H2305   1.082       .  S
C2301      C2302   1.431   1_655  A
N2303      H2307   1.046       .  S
N2303      H2308   1.046       .  S
N2306      H2309   1.043       .  S
N2306      H2310   1.045       .  S
C2311      C2312   1.407       .  A
C2311      C2316   1.410       .  A
C2311      H2318   1.083       .  S
C2312      C2313   1.413       .  A
C2313      C2314   1.398       .  A
C2313      N2320   1.433       .  S
C2314      C2315   1.410       .  A
C2314      H2319   1.082       .  S
C2315      C2316   1.418       .  A
C2316      N2317   1.437       .  S
N2317      H2321   1.046       .  S
N2317      H2322   1.046       .  S
N2320      H2323   1.046       .  S
N2320      H2324   1.043       .  S
C2325      C2326   1.407       .  A
C2325      C2330   1.406       .  A
C2325      H2332   1.082       .  S
C2326      C2327   1.409       .  A
C2327      C2328   1.401       .  A
C2327      N2334   1.433       .  S
C2328      C2329   1.409       .  A
C2328      H2333   1.083       .  S
C2329      C2330   1.422       .  A
C2330      N2331   1.439       .  S
N2331      H2335   1.046       .  S
N2331      H2336   1.043       .  S
N2334      H2337   1.045       .  S
N2334      H2338   1.046       .  S
C2339      C2340   1.404       .  A
C2339      C2344   1.406   1_455  A
C2340      C2341   1.413   1_455  A
C2341      C2342   1.389       .  A
C2341      N2348   1.433       .  S
C2342      C2343   1.404       .  A
C2342      H2347   1.083       .  S
C2343      C2344   1.416       .  A
C2344      N2345   1.437       .  S
N2345      H2350   1.045       .  S
N2348      H2351   1.046       .  S
N2348      H2352   1.042       .  S
