geometry optimzed in LAMMPS
_audit_creation_date              2020-12-01 
_audit_creation_method            'lammps2cif' 
_symmetry_space_group_name_H-M    'P1' 
_symmetry_Int_Tables_number       1 
_symmetry_cell_setting            triclinic 
loop_ 
_symmetry_equiv_pos_as_xyz 
  x,y,z 
_cell_length_a                    50.79997203 
_cell_length_b                    51.18726573658073 
_cell_length_c                    49.342561160223966 
_cell_angle_alpha                 90.2958256471839 
_cell_angle_beta                  89.50094139761553 
_cell_angle_gamma                 119.2235452819931 
loop_ 
_atom_site_label 
_atom_site_type_symbol 
_atom_site_fract_x 
_atom_site_fract_y 
_atom_site_fract_z 
_atom_site_charge 
O1          O  0.27223472  0.36968002  0.43458432    -0.56800
C2          C  0.33169458  0.44649833  0.46926691     0.75800
O3          O  0.35850910  0.40066210  0.47336656    -0.57900
C4          C  0.27067729  0.34497570  0.42811674     0.75800
C5          C  0.35118889  0.43151367  0.38297882     0.78200
Cd6        Cd  0.32885173  0.39956511  0.43418678     1.37500
O7          O  0.31575049  0.41917578  0.47573116    -0.56800
O8          O  0.32342056  0.41799406  0.38910441    -0.55600
C9          C  0.36815004  0.38373747  0.46440633     0.78200
O10         O  0.36834226  0.42803823  0.39930407    -0.58000
O11         O  0.34356659  0.45150981  0.44590795    -0.56400
O12         O  0.29570024  0.34574158  0.42429907    -0.56400
O13         O  0.36040607  0.37408537  0.44045453    -0.55600
O14         O  0.39632752  0.12254688  0.57529045    -0.56800
C15         C  0.37617571  0.04505113  0.54455340     0.75800
O16         O  0.45148369  0.08461949  0.53843624    -0.57900
C17         C  0.41869046  0.14658249  0.58353971     0.75800
C18         C  0.41512831  0.06188257  0.62854737     0.78200
Cd19       Cd  0.42280748  0.09209774  0.57636890     1.37500
O20         O  0.38700630  0.04054874  0.56583424    -0.56800
O21         O  0.39973838  0.07405316  0.62161929    -0.55600
C22         C  0.47588081  0.10885072  0.54132191     0.78200
O23         O  0.43651945  0.06609710  0.61255596    -0.58000
O24         O  0.38532331  0.07222000  0.53846352    -0.56400
O25         O  0.44222582  0.14513596  0.58904500    -0.56400
O26         O  0.47664565  0.12460268  0.56147246    -0.55600
O27         O  0.39681863  0.26177990  0.60411842    -0.56800
C28         C  0.37286084  0.31593130  0.63278965     0.75800
O29         O  0.47402336  0.33624772  0.61476838    -0.57900
C30         C  0.41803782  0.25955099  0.59257696     0.75800
C31         C  0.41617755  0.34131068  0.54738440     0.78200
Cd32       Cd  0.42098332  0.31750453  0.59959565     1.37500
O33         O  0.38800768  0.30376379  0.64062174    -0.56800
O34         O  0.40181116  0.31362501  0.55264557    -0.55600
C35         C  0.47442912  0.35451412  0.63234025     0.78200
O36         O  0.43449890  0.35779134  0.56535363    -0.58000
O37         O  0.37809608  0.32605329  0.60886223    -0.56400
O38         O  0.43974155  0.28374491  0.58379499    -0.56400
O39         O  0.45109981  0.35734382  0.63343892    -0.55600
O40         O  0.27244698  0.40355758  0.72526921    -0.56800
C41         C  0.32115928  0.36425769  0.70692882     0.75800
O42         O  0.36568430  0.44428154  0.71313722    -0.57900
C43         C  0.26307025  0.40753755  0.74792030     0.75800
C44         C  0.34117819  0.39967443  0.79408919     0.78200
Cd45       Cd  0.32178369  0.41043324  0.74199353     1.37500
O46         O  0.33004834  0.36757201  0.73116545    -0.56800
O47         O  0.31516869  0.38289531  0.78454310    -0.55600
C48         C  0.36331926  0.46755228  0.71634443     0.78200
O49         O  0.35821105  0.42259148  0.78005928    -0.58000
O50         O  0.30981309  0.38026830  0.69968401    -0.56400
O51         O  0.28028323  0.41196687  0.76781172    -0.56400
O52         O  0.34354104  0.46534740  0.73334850    -0.55600
O53         O  0.13636148  0.40492132  0.78134567    -0.56800
C54         C  0.05848102  0.38112563  0.80904283     0.75800
O55         O  0.14013629  0.47289059  0.78029978    -0.57900
C56         C  0.15284184  0.41451542  0.76033168     0.75800
C57         C  0.06402107  0.40791613  0.71898474     0.78200
Cd58       Cd  0.09991344  0.42160935  0.76819315     1.37500
O59         O  0.05763348  0.37281297  0.78475747    -0.56800
O60         O  0.07782859  0.39401900  0.72555476    -0.55600
C61         C  0.12287207  0.48175009  0.79040171     0.78200
O62         O  0.06823989  0.42964158  0.73417126    -0.58000
O63         O  0.07970913  0.40693784  0.81463508    -0.56400
O64         O  0.14462648  0.42702293  0.74280938    -0.56400
O65         O  0.09490905  0.46420643  0.78745983    -0.55600
O66         O  0.42188143  0.31651243  0.86849713    -0.56800
C67         C  0.34880147  0.26150545  0.91981138     0.75800
O68         O  0.42892348  0.36168014  0.94751731    -0.57900
C69         C  0.44771712  0.32215214  0.87651503     0.75800
C70         C  0.38180037  0.35620634  0.88349447     0.78200
Cd71       Cd  0.40224500  0.32062405  0.91351493     1.37500
O72         O  0.37228894  0.26466194  0.90766043    -0.56800
O73         O  0.36410262  0.33394060  0.89775536    -0.55600
C74         C  0.43342668  0.34589138  0.96456272     0.78200
O75         O  0.40950865  0.36413385  0.88542586    -0.58000
O76         O  0.35065072  0.28516627  0.92982618    -0.56400
O77         O  0.45137210  0.32382240  0.90189329    -0.56400
O78         O  0.42130361  0.31824997  0.95920538    -0.55600
O79         O  0.10804054  0.23346034  0.09817757    -0.56800
C80         C  0.12925564  0.17752468  0.13228536     0.75800
O81         O  0.04925724  0.13307804  0.12715943    -0.57900
C82         C  0.08602739  0.23515074  0.08810408     0.75800
C83         C  0.08962395  0.15327633  0.04574543     0.78200
Cd84       Cd  0.08269723  0.17706114  0.09785432     1.37500
O85         O  0.11246531  0.18770954  0.14093161    -0.56800
O86         O  0.10549798  0.18037510  0.05257481    -0.55600
C87         C  0.02851142  0.13965391  0.13074331     0.78200
O88         O  0.06834476  0.13718043  0.06193118    -0.58000
O89         O  0.12630463  0.17023153  0.10756622    -0.56400
O90         O  0.06314004  0.21039183  0.08228955    -0.56400
O91         O  0.03154996  0.16211089  0.11755541    -0.55600
O92         O  0.18918666  0.10948485  0.19473959    -0.56800
C93         C  0.24175166  0.08672166  0.24529414     0.75800
O94         O  0.14250958  0.07048594  0.27326679    -0.57900
C95         C  0.18118081  0.12765891  0.20399353     0.75800
C96         C  0.14465233  0.02409525  0.21055816     0.78200
Cd97       Cd  0.18224829  0.08152712  0.23794641     1.37500
O98         O  0.23582533  0.09769219  0.22476041    -0.56800
O99         O  0.16945572  0.03037694  0.22149769    -0.55600
C100        C  0.15989214  0.08996567  0.29010613     0.78200
O101        O  0.13579531  0.04300739  0.21438186    -0.58000
O102        O  0.22073200  0.07439808  0.26265000    -0.56400
O103        O  0.17665654  0.12646448  0.22925606    -0.56400
O104        O  0.18758973  0.10363053  0.28373360    -0.55600
O105        O  0.37066499  0.09502992  0.28084347    -0.56800
C106        C  0.45255166  0.12646960  0.30156442     0.75800
O107        O  0.41687125  0.04386434  0.29616085    -0.57900
C108        C  0.35457869  0.08522913  0.25979890     0.75800
C109        C  0.44302984  0.09009620  0.21716479     0.78200
Cd110      Cd  0.40844468  0.07934576  0.26747477     1.37500
O111        O  0.45677399  0.12541712  0.27643296    -0.56800
O112        O  0.42413267  0.09919662  0.22061991    -0.55600
C113        C  0.39007992  0.02253283  0.29606256     0.78200
O114        O  0.44373186  0.07339060  0.23570154    -0.58000
O115        O  0.42658826  0.10790837  0.31033400    -0.56400
O116        O  0.36373597  0.07350939  0.24203754    -0.56400
O117        O  0.37235147  0.02590292  0.28041723    -0.55600
O118        O  0.13406957  0.23155597  0.40764481    -0.56800
C119        C  0.05698021  0.17543499  0.37599714     0.75800
O120        O  0.13749243  0.15650173  0.39408292    -0.57900
C121        C  0.15799892  0.23300732  0.41681863     0.75800
C122        C  0.07228773  0.15310483  0.46258301     0.78200
Cd123      Cd  0.10297478  0.17552225  0.41046646     1.37500
O124        O  0.08361371  0.18465247  0.36728977    -0.56800
O125        O  0.08493554  0.18047743  0.45618754    -0.55600
C126        C  0.11893379  0.13716489  0.37786901     0.78200
O127        O  0.07623701  0.13623032  0.44609663    -0.58000
O128        O  0.05291189  0.16980632  0.40105040    -0.56400
O129        O  0.15618245  0.20833377  0.42345656    -0.56400
O130        O  0.09254358  0.13366976  0.37872349    -0.55600
O131        O  0.11604363  0.45675616  0.06455424    -0.56800
C132        C  0.08421495  0.34791357  0.07756971     0.75800
O133        O  0.06813059  0.43014590  0.11131655    -0.57900
C134        C  0.12356393  0.45274964  0.04106700     0.75800
C135        C  0.02502219  0.38691748  0.04386217     0.78200
Cd136      Cd  0.08012534  0.40344683  0.07442104     1.37500
O137        O  0.10764859  0.37316277  0.07434383    -0.56800
O138        O  0.05110472  0.40450648  0.03479896    -0.55600
C139        C  0.08788032  0.43182044  0.12781964     0.78200
O140        O  0.02375574  0.37784409  0.06795597    -0.58000
O141        O  0.05974752  0.34863813  0.07946949    -0.56400
O142        O  0.11319329  0.42570464  0.03384865    -0.56400
O143        O  0.10195371  0.41817150  0.12073326    -0.55600
O144        O  0.23488253  0.12299815  0.92851639    -0.56800
C145        C  0.17497851  0.04499924  0.96541651     0.75800
O146        O  0.15188002  0.12324552  0.94033031    -0.57900
C147        C  0.23609103  0.14829011  0.92695114     0.75800
C148        C  0.15737447  0.06289563  0.87891179     0.78200
Cd149      Cd  0.17796635  0.09283203  0.93151677     1.37500
O150        O  0.19423135  0.07202162  0.97048153    -0.56800
O151        O  0.18466777  0.07491900  0.88606358    -0.55600
C152        C  0.13941130  0.11035887  0.96236166     0.78200
O153        O  0.14007420  0.06722349  0.89469844    -0.58000
O154        O  0.15901928  0.04081592  0.94466651    -0.56400
O155        O  0.21091298  0.14767650  0.92714207    -0.56400
O156        O  0.14337887  0.08875127  0.96910327    -0.55600
C157        C  0.15471315  0.50794669  0.03231922    -0.20300
C158        C  0.14151640  0.47834696  0.02254918    -0.08300
C159        C  0.14226698  0.47375825  0.99446116     0.30500
C160        C  0.15158855  0.99004773  0.97325462    -0.20300
C161        C  0.16953180  0.01932716  0.98306491    -0.08300
C162        C  0.17827341  0.02320246  0.01043480     0.30500
F163        F  0.19624938  0.05096846  0.02066853    -0.18900
H164        H  0.15463147  0.51221653  0.05386818     0.18900
H165        H  0.14494343  0.98627426  0.95216055     0.18900
F166        F  0.12995314  0.44571222  0.98397795    -0.18800
C167        C  0.47236840  0.14283146  0.34819951    -0.20300
C168        C  0.47734541  0.14604996  0.32007873    -0.08300
C169        C  0.50707346  0.16400620  0.31038223     0.30500
C170        C  0.03606080  0.17066098  0.32942561    -0.20300
C171        C  0.03142223  0.16881355  0.35761025    -0.08300
C172        C  0.00159426  0.15613824  0.36762276     0.30500
F173        F  0.99591538  0.15434921  0.39468067    -0.18900
H174        H  0.44980897  0.12941765  0.35629194     0.18900
H175        H  0.05866443  0.18042147  0.32108831     0.18900
F176        F  0.51301355  0.16817876  0.28339500    -0.18800
C177        C  0.11815032  0.09131531  0.31644542    -0.20300
C178        C  0.14840673  0.09785568  0.31496762    -0.08300
C179        C  0.16802024  0.11483322  0.33598400     0.30500
C180        C  0.15784780  0.12610456  0.35718969    -0.20300
C181        C  0.12800646  0.12098571  0.35786930    -0.08300
C182        C  0.10805173  0.10286941  0.33745862     0.30500
F183        F  0.07916450  0.09762621  0.33682903    -0.18900
H184        H  0.10261324  0.07856624  0.30050706     0.18900
H185        H  0.17373685  0.13987392  0.37253656     0.18900
F186        F  0.19732151  0.12134288  0.33567528    -0.18800
C187        C  0.28110788  0.08562661  0.27493887    -0.20300
C188        C  0.27134962  0.08773499  0.24884493    -0.08300
C189        C  0.28947657  0.08942506  0.22641596     0.30500
C190        C  0.31653893  0.08877380  0.23011756    -0.20300
C191        C  0.32637433  0.08690689  0.25623177    -0.08300
C192        C  0.30838407  0.08544722  0.27865858     0.30500
F193        F  0.31646833  0.08254483  0.30414466    -0.18900
H194        H  0.26755110  0.08400078  0.29248700     0.18900
H195        H  0.32978521  0.08967200  0.21255561     0.18900
F196        F  0.28051673  0.09049483  0.20080567    -0.18800
C197        C  0.11424154  0.44767340  0.17273839    -0.20300
C198        C  0.09583519  0.45037644  0.15303082    -0.08300
C199        C  0.08854984  0.47351377  0.15607509     0.30500
C200        C  0.10150088  0.49473517  0.17689991    -0.20300
C201        C  0.12156529  0.49321861  0.19550746    -0.08300
C202        C  0.12674054  0.46859818  0.19389236     0.30500
F203        F  0.14548969  0.46578066  0.21159865    -0.18900
H204        H  0.12005200  0.42994274  0.17113135     0.18900
H205        H  0.09430922  0.00919446  0.18056556     0.18900
F206        F  0.07063608  0.47699017  0.13785186    -0.18800
C207        C  0.10091839  0.10043618  0.99874852    -0.20300
C208        C  0.12233248  0.12050890  0.98018765    -0.08300
C209        C  0.12951650  0.15077210  0.98113684     0.30500
C210        C  0.11733921  0.16094840  0.00158988    -0.20300
C211        C  0.09727422  0.14116389  0.02117444    -0.08300
C212        C  0.08819166  0.11048318  0.01880212     0.30500
F213        F  0.06864658  0.09042291  0.03696166    -0.18900
H214        H  0.09477977  0.07698703  0.99833239     0.18900
H215        H  0.12464464  0.18464235  0.00278199     0.18900
F216        F  0.15001932  0.17098766  0.96363448    -0.18800
C217        C  0.11260211  0.31875076  0.07945096    -0.20300
C218        C  0.08501874  0.31907186  0.07918808    -0.08300
C219        C  0.05806551  0.29139950  0.08077026     0.30500
C220        C  0.05880116  0.26446937  0.08294244    -0.20300
C221        C  0.08628450  0.26417896  0.08404984    -0.08300
C222        C  0.11329826  0.29167936  0.08196706     0.30500
F223        F  0.14037196  0.29242156  0.08203501    -0.18900
H224        H  0.13370779  0.33951978  0.07800424     0.18900
H225        H  0.03765849  0.24374607  0.08444126     0.18900
F226        F  0.03077390  0.29017856  0.08048853    -0.18800
C227        C  0.14904530  0.17614323  0.17846355    -0.20300
C228        C  0.14927820  0.17182622  0.15031285    -0.08300
C229        C  0.16527678  0.15778449  0.14011531     0.30500
C230        C  0.17776715  0.14555091  0.15778983    -0.20300
C231        C  0.17490208  0.14721014  0.18599007    -0.08300
C232        C  0.16184398  0.16412122  0.19617801     0.30500
F233        F  0.15955867  0.16738141  0.22327340    -0.18900
H234        H  0.13735727  0.18721411  0.18690453     0.18900
H235        H  0.18808934  0.13316074  0.14930765     0.18900
F236        F  0.16712380  0.15393258  0.11306471    -0.18800
C237        C  0.49117478  0.09816416  0.19552963    -0.20300
C238        C  0.46465873  0.10027772  0.19387249    -0.08300
C239        C  0.46105383  0.11514736  0.17138027     0.30500
C240        C  0.48394470  0.12835145  0.15164522    -0.20300
C241        C  0.51108656  0.12757022  0.15422928    -0.08300
C242        C  0.51422923  0.11186368  0.17615259     0.30500
F243        F  0.02091104  0.08917720  0.16280319    -0.18900
H244        H  0.49471177  0.08701930  0.21253568     0.18900
H245        H  0.48098067  0.14031283  0.13497581     0.18900
F246        F  0.43579757  0.11764860  0.16877531    -0.18800
C247        C  0.45115821  0.34079496  0.01057028    -0.20300
C248        C  0.45347575  0.35899403  0.98839490    -0.08300
C249        C  0.47769715  0.38851313  0.98759698     0.30500
C250        C  0.50032688  0.39851736  0.00724962    -0.20300
C251        C  0.49909980  0.37962105  0.02840452    -0.08300
C252        C  0.47348937  0.35106927  0.03059918     0.30500
F253        F  0.47103852  0.33222810  0.05092206    -0.18900
H254        H  0.43264295  0.31808065  0.01180167     0.18900
H255        H  0.01530491  0.41888109  0.00529394     0.18900
F256        F  0.48094824  0.40694562  0.96663162    -0.18800
C257        C  0.29347570  0.23149316  0.93010040    -0.20300
C258        C  0.32036708  0.23214798  0.92184862    -0.08300
C259        C  0.31928273  0.20480766  0.91518907     0.30500
C260        C  0.29200270  0.17762539  0.91711065    -0.20300
C261        C  0.26510557  0.17709753  0.92518582    -0.08300
C262        C  0.26620677  0.20449122  0.93156700     0.30500
F263        F  0.24099372  0.20527841  0.93966826    -0.18900
H264        H  0.29342389  0.25205195  0.93520426     0.18900
H265        H  0.29186179  0.15697770  0.91196783     0.18900
F266        F  0.34455754  0.20422230  0.90700023    -0.18800
C267        C  0.46818782  0.33015502  0.82930886    -0.20300
C268        C  0.47282853  0.32893071  0.85718943    -0.08300
C269        C  0.01168675  0.36218682  0.87302158     0.30500
C270        C  0.03641065  0.37498652  0.85537305    -0.20300
C271        C  0.03487833  0.36303685  0.82940027    -0.08300
C272        C  0.00888589  0.33611028  0.82239646     0.30500
F273        F  0.00695530  0.32296212  0.79799142    -0.18900
H274        H  0.44579636  0.32302448  0.82164311     0.18900
H275        H  0.05622304  0.39535546  0.86156355     0.18900
F276        F  0.01393316  0.37583021  0.89722870    -0.18800
C277        C  0.15506509  0.02154066  0.81357313    -0.20300
C278        C  0.12483998  0.99850596  0.81329264    -0.08300
C279        C  0.11560860  0.52028827  0.81684187     0.30500
C280        C  0.11539640  0.02110580  0.85337463    -0.20300
C281        C  0.14595642  0.04308825  0.85460125    -0.08300
C282        C  0.16561704  0.04344823  0.83406778     0.30500
F283        F  0.19524111  0.06447453  0.83417633    -0.18900
H284        H  0.17094738  0.02183072  0.79861702     0.18900
H285        H  0.09974293  0.02007231  0.86893864     0.18900
F286        F  0.08727543  0.50929979  0.80702953    -0.18800
C287        C  0.33052940  0.36668705  0.83459379    -0.20300
C288        C  0.35113160  0.39183922  0.81964723    -0.08300
C289        C  0.38136634  0.40744711  0.82825279     0.30500
C290        C  0.39094491  0.39676726  0.85009733    -0.20300
C291        C  0.37059392  0.37059917  0.86403024    -0.08300
C292        C  0.33999391  0.35622668  0.85655271     0.30500
F293        F  0.31941309  0.33089676  0.86929442    -0.18900
H294        H  0.30706554  0.35429521  0.82866554     0.18900
H295        H  0.41460650  0.40838269  0.85544596     0.18900
F296        F  0.40202831  0.43217336  0.81483060    -0.18800
C297        C  0.22109462  0.41383725  0.72840175    -0.20300
C298        C  0.23402975  0.40776162  0.75090714    -0.08300
C299        C  0.21953526  0.40308692  0.77628717     0.30500
C300        C  0.19293722  0.40479542  0.77904662    -0.20300
C301        C  0.18038884  0.41160149  0.75669546    -0.08300
C302        C  0.19472785  0.41600400  0.73123902     0.30500
F303        F  0.18330103  0.42233145  0.70901388    -0.18900
H304        H  0.23176441  0.41758581  0.70869962     0.18900
H305        H  0.18243367  0.40125879  0.79881265     0.18900
F306        F  0.23089963  0.39663317  0.79847643    -0.18800
C307        C  0.33791557  0.33640952  0.64151537    -0.20300
C308        C  0.35224871  0.32074948  0.65111757    -0.08300
C309        C  0.35052851  0.31438392  0.67902401     0.30500
C310        C  0.33792143  0.32654834  0.69706906    -0.20300
C311        C  0.32647910  0.34490431  0.68765319    -0.08300
C312        C  0.32504956  0.34828830  0.65949606     0.30500
F313        F  0.31370236  0.36531161  0.64935038    -0.18900
H314        H  0.33845604  0.34130921  0.62009209     0.18900
H315        H  0.33885666  0.32312112  0.71864445     0.18900
F316        F  0.36301715  0.29837238  0.68917011    -0.18800
C317        C  0.04625604  0.38128481  0.67449962    -0.20300
C318        C  0.04307068  0.39814227  0.69560126    -0.08300
C319        C  0.01802342  0.40288633  0.69542257     0.30500
C320        C  0.99606222  0.38988531  0.67526388    -0.20300
C321        C  0.99873186  0.37224153  0.65461064    -0.08300
C322        C  0.02453369  0.36869237  0.65405284     0.30500
F323        F  0.02797472  0.35163997  0.63469591    -0.18900
H324        H  0.06527106  0.37721395  0.67420035     0.18900
H325        H  0.48742037  0.40376381  0.66325636     0.18900
F326        F  0.01366369  0.41841815  0.71570432    -0.18800
C327        C  0.40566707  0.00031478  0.67746984    -0.20300
C328        C  0.38181149  0.99766605  0.69412676    -0.08300
C329        C  0.37201953  0.01891485  0.69113228     0.30500
C330        C  0.38432425  0.04077072  0.67082162    -0.20300
C331        C  0.40684071  0.04230325  0.65304242    -0.08300
C332        C  0.41816313  0.02238717  0.65722156     0.30500
F333        F  0.43997797  0.02295658  0.64075296    -0.18900
H334        H  0.41470021  0.48258064  0.68718740     0.18900
H335        H  0.37518057  0.05583834  0.66828509     0.18900
F336        F  0.34927884  0.01759010  0.70674751    -0.18800
C337        C  0.02977158  0.14988453  0.52766720    -0.20300
C338        C  0.00704682  0.11968244  0.52819290    -0.08300
C339        C  0.00810163  0.10011398  0.50850465     0.30500
C340        C  0.03056075  0.11083053  0.48831413    -0.20300
C341        C  0.05225096  0.14132951  0.48690537    -0.08300
C342        C  0.05199176  0.16067565  0.50723137     0.30500
F343        F  0.07261874  0.19026566  0.50693163    -0.18900
H344        H  0.52648260  0.16343512  0.53835615     0.18900
H345        H  0.02998329  0.09544570  0.47290842     0.18900
F346        F  0.98666622  0.07080685  0.50792131    -0.18800
C347        C  0.39171242  0.20330708  0.59591194    -0.20300
C348        C  0.41788557  0.23046989  0.58984678    -0.08300
C349        C  0.44412619  0.22955966  0.58178104     0.30500
C350        C  0.44416703  0.20225792  0.58023124    -0.20300
C351        C  0.41797004  0.17515010  0.58598534    -0.08300
C352        C  0.39162631  0.17587901  0.59376521     0.30500
F353        F  0.36606847  0.15019495  0.60007575    -0.18900
H354        H  0.37127607  0.20327294  0.60228366     0.18900
H355        H  0.46466755  0.20227229  0.57408639     0.18900
F356        F  0.46997950  0.25505915  0.57566245    -0.18800
C357        C  0.39385451  0.47380100  0.35822298    -0.20300
C358        C  0.36317746  0.45199148  0.35921213    -0.08300
C359        C  0.34390276  0.45241358  0.33904005     0.30500
C360        C  0.35488041  0.47503908  0.31930504    -0.20300
C361        C  0.38512392  0.49798566  0.31946187    -0.08300
C362        C  0.40471121  0.49666549  0.33877840     0.30500
F363        F  0.43423180  0.51795713  0.33942736    -0.18900
H364        H  0.40926253  0.47409551  0.37340726     0.18900
H365        H  0.33224750  0.98208490  0.30939699     0.18900
F366        F  0.31421087  0.43157051  0.33886499    -0.18800
C367        C  0.35590600  0.50118120  0.47937390    -0.20300
C368        C  0.33855649  0.47148841  0.48841792    -0.08300
C369        C  0.33227794  0.46631608  0.51634649     0.30500
C370        C  0.34534019  0.99024934  0.53682600    -0.20300
C371        C  0.35605115  0.01949856  0.52707710    -0.08300
C372        C  0.35182854  0.02349054  0.49957661     0.30500
F373        F  0.36096157  0.05122954  0.48942068    -0.18900
H374        H  0.36102759  0.50592464  0.45798407     0.18900
H375        H  0.34783345  0.98642049  0.55803210     0.18900
F376        F  0.31512803  0.43812472  0.52603128    -0.18800
C377        C  0.41491919  0.38342771  0.52346017    -0.17900
C378        C  0.40994809  0.35393656  0.52275540    -0.08300
C379        C  0.39537885  0.33597120  0.50003859     0.30500
C380        C  0.38381675  0.34659692  0.47969172    -0.20300
C381        C  0.38623421  0.37507553  0.48193111    -0.08300
C382        C  0.40302573  0.39384237  0.50343651     0.30500
F383        F  0.40680374  0.42190387  0.50580913    -0.18900
H384        H  0.42624989  0.39783306  0.54049596     0.18900
H385        H  0.37129260  0.33186584  0.46321971     0.18900
F386        F  0.39121724  0.30774583  0.49803721    -0.18800
C387        C  0.18638625  0.28883060  0.42371917    -0.20300
C388        C  0.18666971  0.26177932  0.41953049    -0.08300
C389        C  0.21468381  0.26245143  0.41802075     0.30500
C390        C  0.24165397  0.28951641  0.42068783    -0.20300
C391        C  0.24149833  0.31660150  0.42520263    -0.08300
C392        C  0.21343768  0.31593908  0.42679508     0.30500
F393        F  0.21203149  0.34141407  0.43124423    -0.18900
H394        H  0.16515012  0.28892382  0.42502263     0.18900
H395        H  0.26277083  0.28920078  0.41926126     0.18900
F396        F  0.21611383  0.23702496  0.41326338    -0.18800
O397        O  0.27226451  0.87174795  0.43962587    -0.56800
C398        C  0.32836816  0.94627667  0.47157335     0.75800
O399        O  0.36995523  0.90959337  0.46596827    -0.57900
C400        C  0.27015729  0.84841080  0.42856140     0.75800
C401        C  0.34886320  0.93426241  0.38230005     0.78200
Cd402      Cd  0.32877037  0.90242346  0.43428797     1.37500
O403        O  0.31935428  0.91949128  0.47876773    -0.56800
O404        O  0.32211660  0.92311024  0.39112909    -0.55600
C405        C  0.36791000  0.88413107  0.46284578     0.78200
O406        O  0.36646451  0.92909675  0.39657865    -0.58000
O407        O  0.33536266  0.95203983  0.44683662    -0.56400
O408        O  0.29455712  0.85048245  0.41976311    -0.56400
O409        O  0.34970187  0.86789051  0.44471817    -0.55600
O410        O  0.40014451  0.61894358  0.57567666    -0.56800
C411        C  0.38335738  0.54331294  0.54553323     0.75800
O412        O  0.45859538  0.58011691  0.54793489    -0.57900
C413        C  0.42074155  0.64254812  0.58648446     0.75800
C414        C  0.41671965  0.55876125  0.63420485     0.78200
Cd415      Cd  0.42675022  0.58852172  0.58150855     1.37500
O416        O  0.38847454  0.53702157  0.56897230    -0.56800
O417        O  0.40111187  0.57015407  0.62583802    -0.55600
C418        C  0.48221294  0.60511574  0.55031527     0.78200
O419        O  0.43888783  0.56308719  0.61923389    -0.58000
O420        O  0.39646616  0.57086368  0.53948380    -0.56400
O421        O  0.44308530  0.64068058  0.59532977    -0.56400
O422        O  0.48152603  0.62180073  0.56903454    -0.55600
O423        O  0.40065499  0.76062118  0.60086877    -0.56800
C424        C  0.38536438  0.82025068  0.63253720     0.75800
O425        O  0.48317219  0.83643142  0.60747041    -0.57900
C426        C  0.42189119  0.75686882  0.59152710     0.75800
C427        C  0.41786446  0.83890387  0.54376436     0.78200
Cd428      Cd  0.42818086  0.81691509  0.59533194     1.37500
O429        O  0.40435942  0.81276148  0.64055561    -0.56800
O430        O  0.40412973  0.81148570  0.55008176    -0.55600
C431        C  0.48484356  0.85661743  0.62348420     0.78200
O432        O  0.43862627  0.85582277  0.55979659    -0.58000
O433        O  0.38425553  0.82307878  0.60720922    -0.56400
O434        O  0.44506986  0.78026199  0.58336354    -0.56400
O435        O  0.46166222  0.85970558  0.62455980    -0.55600
O436        O  0.27319168  0.90060487  0.72315264    -0.56800
C437        C  0.33265069  0.87089370  0.70506362     0.75800
O438        O  0.37021952  0.94922207  0.71149587    -0.57900
C439        C  0.26464567  0.90747045  0.74498204     0.75800
C440        C  0.34220642  0.90098966  0.79197584     0.78200
Cd441      Cd  0.32542828  0.91370139  0.73918517     1.37500
O442        O  0.34502018  0.87956089  0.72786682    -0.56800
O443        O  0.31898605  0.88254415  0.77914082    -0.55600
C444        C  0.36492908  0.97087669  0.71185801     0.78200
O445        O  0.35733847  0.92669562  0.78126538    -0.58000
O446        O  0.31446566  0.88006019  0.69846421    -0.56400
O447        O  0.28347993  0.91605929  0.76412458    -0.56400
O448        O  0.34319121  0.96735779  0.72695323    -0.55600
O449        O  0.13383533  0.89899569  0.77650099    -0.56800
C450        C  0.04961878  0.87016824  0.79629299     0.75800
O451        O  0.13118118  0.97194366  0.77499485    -0.57900
C452        C  0.15155843  0.91028652  0.75644377     0.75800
C453        C  0.06584424  0.90758306  0.71247944     0.78200
Cd454      Cd  0.09758333  0.91690870  0.76377540     1.37500
O455        O  0.07663740  0.88401078  0.80446168    -0.56800
O456        O  0.08000378  0.89382441  0.71847262    -0.55600
C457        C  0.11502268  0.97247801  0.79445481     0.78200
O458        O  0.06843155  0.92771079  0.72907592    -0.58000
O459        O  0.04547534  0.87593642  0.77235662    -0.56400
O460        O  0.14420099  0.92411322  0.73958221    -0.56400
O461        O  0.09039325  0.94865828  0.79790338    -0.55600
O462        O  0.42337407  0.81096164  0.86229432    -0.56800
C463        C  0.35004311  0.75961907  0.91747694     0.75800
O464        O  0.42645285  0.85524890  0.94498982    -0.57900
C465        C  0.45075415  0.82303865  0.86919089     0.75800
C466        C  0.38123239  0.85190833  0.87805997     0.78200
Cd467      Cd  0.40390059  0.81743260  0.90747121     1.37500
O468        O  0.37437161  0.76078485  0.90929244    -0.56800
O469        O  0.36680260  0.82381055  0.88067359    -0.55600
C470        C  0.43304564  0.83930200  0.96006360     0.78200
O471        O  0.40604500  0.86516394  0.89062075    -0.58000
O472        O  0.35145710  0.78461591  0.92212164    -0.56400
O473        O  0.45579793  0.82951897  0.89397587    -0.56400
O474        O  0.42385917  0.81274488  0.95199160    -0.55600
O475        O  0.11586960  0.73302973  0.09996028    -0.56800
C476        C  0.13407007  0.67112825  0.13636650     0.75800
O477        O  0.06537474  0.65262483  0.14749208    -0.57900
C478        C  0.09213067  0.73530035  0.09974797     0.75800
C479        C  0.09445995  0.65567707  0.05026507     0.78200
Cd480      Cd  0.08933945  0.67680751  0.10458331     1.37500
O481        O  0.12688553  0.69103570  0.14197416    -0.56800
O482        O  0.11201366  0.68178010  0.05893101    -0.55600
C483        C  0.03821575  0.64020887  0.14002668     0.78200
O484        O  0.07299439  0.63918170  0.06614088    -0.58000
O485        O  0.12256661  0.65602184  0.11512500    -0.56400
O486        O  0.06761687  0.71092273  0.10180577    -0.56400
O487        O  0.03399010  0.64393485  0.11534235    -0.55600
O488        O  0.19184517  0.60249919  0.20248420    -0.56800
C489        C  0.23911352  0.57707905  0.25057440     0.75800
O490        O  0.13915563  0.56649083  0.27719450    -0.57900
C491        C  0.18210609  0.61979964  0.21049225     0.75800
C492        C  0.13946973  0.51905584  0.21398276     0.78200
Cd493      Cd  0.17987353  0.57316886  0.24497629     1.37500
O494        O  0.21462014  0.55255520  0.25184164    -0.56800
O495        O  0.15443682  0.51776815  0.23386684    -0.55600
C496        C  0.15611061  0.58156455  0.29647913     0.78200
O497        O  0.14180085  0.54441947  0.20975364    -0.58000
O498        O  0.23651699  0.60016117  0.24668545    -0.56400
O499        O  0.17457413  0.61766254  0.23519480    -0.56400
O500        O  0.18378286  0.58975212  0.29335568    -0.55600
O501        O  0.37851142  0.60357262  0.27353829    -0.56800
C502        C  0.45813606  0.62523245  0.30372298     0.75800
O503        O  0.41774476  0.54944706  0.30704920    -0.57900
C504        C  0.35527620  0.58154674  0.26358428     0.75800
C505        C  0.44389905  0.58827007  0.21911776     0.78200
Cd506      Cd  0.41145586  0.57928364  0.27047403     1.37500
O507        O  0.46253683  0.62020969  0.27948059    -0.56800
O508        O  0.42797310  0.60054154  0.22407717    -0.55600
C509        C  0.39513462  0.52451712  0.30146886     0.78200
O510        O  0.44248478  0.56954932  0.23657105    -0.58000
O511        O  0.43104077  0.61103749  0.31211965    -0.56400
O512        O  0.35837517  0.55935491  0.25673858    -0.56400
O513        O  0.38086922  0.52410793  0.28042535    -0.55600
O514        O  0.13333110  0.73370525  0.41327645    -0.56800
C515        C  0.05751669  0.67885706  0.37708374     0.75800
O516        O  0.12706409  0.64412468  0.40237085    -0.57900
C517        C  0.15846933  0.73523218  0.41823974     0.75800
C518        C  0.06868904  0.65116131  0.45989533     0.78200
Cd519      Cd  0.10353080  0.67746938  0.41034242     1.37500
O520        O  0.08441253  0.68947532  0.36857085    -0.56800
O521        O  0.08765429  0.67876990  0.45826546    -0.55600
C522        C  0.11852475  0.63838198  0.37792331     0.78200
O523        O  0.06821499  0.63532345  0.43991366    -0.58000
O524        O  0.05301054  0.67088913  0.40163526    -0.56400
O525        O  0.15799772  0.71035319  0.41993668    -0.56400
O526        O  0.10335340  0.65012589  0.36939084    -0.55600
O527        O  0.12888820  0.94976392  0.06336961    -0.56800
C528        C  0.08932978  0.84698951  0.08520912     0.75800
O529        O  0.07233630  0.92925405  0.11156008    -0.57900
C530        C  0.12814416  0.94499171  0.03816390     0.75800
C531        C  0.02780779  0.88162979  0.04571118     0.78200
Cd532      Cd  0.08427309  0.90097037  0.07557423     1.37500
O533        O  0.10930278  0.86889614  0.07177255    -0.56800
O534        O  0.04855565  0.90863751  0.04619117    -0.55600
C535        C  0.09390642  0.93336941  0.12695295     0.78200
O536        O  0.03169627  0.86414036  0.06110890    -0.58000
O537        O  0.06772340  0.85031554  0.09413415    -0.56400
O538        O  0.10932055  0.91875995  0.03059744    -0.56400
O539        O  0.10885259  0.92078595  0.11952453    -0.55600
O540        O  0.23108932  0.62588924  0.93613850    -0.56800
C541        C  0.17100914  0.55178039  0.96673469     0.75800
O542        O  0.15623031  0.63218704  0.94257855    -0.57900
C543        C  0.23451570  0.65013060  0.92616022     0.75800
C544        C  0.16132206  0.56975386  0.87541081     0.78200
Cd545      Cd  0.17504470  0.59711533  0.92939368     1.37500
O546        O  0.18496129  0.57925901  0.97313255    -0.56800
O547        O  0.18529590  0.57630445  0.88800954    -0.55600
C548        C  0.13533979  0.61455741  0.95830632     0.78200
O549        O  0.14371157  0.57738658  0.88700663    -0.58000
O550        O  0.16089855  0.54587765  0.94285205    -0.56400
O551        O  0.21085797  0.64954023  0.91750790    -0.56400
O552        O  0.13012652  0.58774628  0.95805752    -0.55600
C553        C  0.16652572  0.99848550  0.02803182    -0.20300
C554        C  0.14628102  0.96948571  0.01860980    -0.08300
C555        C  0.14020964  0.96539658  0.99066813     0.30500
C556        C  0.15373532  0.49803885  0.97659961    -0.20300
C557        C  0.16496634  0.52744041  0.98621414    -0.08300
C558        C  0.16654829  0.53231900  0.01440915     0.30500
F559        F  0.17753918  0.56036992  0.02465177    -0.18900
H560        H  0.17194964  0.00232821  0.04938753     0.18900
H561        H  0.15249883  0.49362913  0.95499656     0.18900
F562        F  0.12142729  0.93788361  0.98035258    -0.18800
C563        C  0.47880502  0.64557385  0.34968908    -0.20300
C564        C  0.48374059  0.64451576  0.32173418    -0.08300
C565        C  0.51373386  0.65820963  0.31200282     0.30500
C566        C  0.03707078  0.67562426  0.33062325    -0.20300
C567        C  0.03219873  0.67312854  0.35878367    -0.08300
C568        C  0.00231565  0.66019486  0.36867633     0.30500
F569        F  0.99645865  0.65796133  0.39571152    -0.18900
H570        H  0.45607932  0.63551766  0.35776336     0.18900
H571        H  0.05973369  0.68571761  0.32239328     0.18900
F572        F  0.51982585  0.65837521  0.28514195    -0.18800
C573        C  0.11722218  0.59176346  0.31738945    -0.20300
C574        C  0.14451252  0.59133620  0.32003471    -0.08300
C575        C  0.16180878  0.60388761  0.34356287     0.30500
C576        C  0.15242334  0.61760693  0.36332168    -0.20300
C577        C  0.12610758  0.61974223  0.35962174    -0.08300
C578        C  0.10827577  0.60603583  0.33667142     0.30500
F579        F  0.08250771  0.60718786  0.33234138    -0.18900
H580        H  0.10351014  0.58250678  0.29953088     0.18900
H581        H  0.16655898  0.62794493  0.38076389     0.18900
F582        F  0.18826625  0.60385242  0.34704457    -0.18800
C583        C  0.29471999  0.60548897  0.26084798    -0.20300
C584        C  0.26899968  0.57853594  0.25356678    -0.08300
C585        C  0.27211086  0.55293826  0.24943082     0.30500
C586        C  0.30015826  0.55432745  0.25256555    -0.20300
C587        C  0.32586813  0.58112956  0.26016103    -0.08300
C588        C  0.32280133  0.60679034  0.26432689     0.30500
F589        F  0.34687555  0.63319561  0.27163993    -0.18900
H590        H  0.29301670  0.62549020  0.26421178     0.18900
H591        H  0.30166217  0.53422047  0.24915315     0.18900
F592        F  0.24814412  0.52654679  0.24187432    -0.18800
C593        C  0.12630739  0.95525007  0.16787275    -0.20300
C594        C  0.10279694  0.95304723  0.15144210    -0.08300
C595        C  0.09070140  0.97210769  0.15710709     0.30500
C596        C  0.10321339  0.99392019  0.17755183    -0.20300
C597        C  0.12805888  0.99737482  0.19274216    -0.08300
C598        C  0.13884534  0.97704555  0.18820464     0.30500
F599        F  0.16246621  0.97902356  0.20249153    -0.18900
H600        H  0.13603677  0.94075570  0.16422776     0.18900
H601        H  0.09675233  0.51322038  0.17775973     0.18900
F602        F  0.06798557  0.97092184  0.14194652    -0.18800
C603        C  0.09543687  0.60483677  0.99370912    -0.20300
C604        C  0.12004218  0.62527539  0.97782799    -0.08300
C605        C  0.13289320  0.65600209  0.98386171     0.30500
C606        C  0.12315519  0.66565466  0.00651938    -0.20300
C607        C  0.10014592  0.64511679  0.02365892    -0.08300
C608        C  0.08537697  0.61459872  0.01626022     0.30500
F609        F  0.06247230  0.59392772  0.03166345    -0.18900
H610        H  0.08490566  0.58108528  0.98948061     0.18900
H611        H  0.13472487  0.68928274  0.01135372     0.18900
F612        F  0.15655422  0.67672326  0.96918185    -0.18800
C613        C  0.11653958  0.81684574  0.08261252    -0.20300
C614        C  0.09075813  0.81886943  0.09003316    -0.08300
C615        C  0.06614075  0.79349085  0.10169824     0.30500
C616        C  0.06702007  0.76673447  0.10492089    -0.20300
C617        C  0.09255506  0.76454481  0.09713864    -0.08300
C618        C  0.11760171  0.79013217  0.08632298     0.30500
F619        F  0.14280588  0.78915701  0.07857357    -0.18900
H620        H  0.13589738  0.83594000  0.07377434     0.18900
H621        H  0.04754175  0.74759393  0.11354727     0.18900
F622        F  0.04084644  0.79419284  0.10964449    -0.18800
C623        C  0.15481501  0.67115000  0.18225041    -0.20300
C624        C  0.15287878  0.66404099  0.15451129    -0.08300
C625        C  0.16533855  0.64636301  0.14519398     0.30500
C626        C  0.17750220  0.63439748  0.16345346    -0.20300
C627        C  0.17690466  0.63916023  0.19145207    -0.08300
C628        C  0.16647514  0.65866010  0.20064865     0.30500
F629        F  0.16574135  0.66420361  0.22750935    -0.18900
H630        H  0.14537356  0.68463351  0.18997211     0.18900
H631        H  0.18538333  0.61958954  0.15575776     0.18900
F632        F  0.16423813  0.63914867  0.11856864    -0.18800
C633        C  0.49196926  0.59623033  0.19771042    -0.20300
C634        C  0.46492103  0.59723328  0.19548909    -0.08300
C635        C  0.46032462  0.61018355  0.17211808     0.30500
C636        C  0.48298314  0.62308459  0.15214097    -0.20300
C637        C  0.51086155  0.62395035  0.15541894    -0.08300
C638        C  0.51479849  0.60964715  0.17809987     0.30500
F639        F  0.04688527  0.61886813  0.19104423    -0.18900
H640        H  0.49617300  0.58648939  0.21543845     0.18900
H641        H  0.47931508  0.63377784  0.13482243     0.18900
F642        F  0.43426027  0.61105120  0.16889266    -0.18800
C643        C  0.45471669  0.83151018  0.00291379    -0.20300
C644        C  0.45209881  0.85125479  0.98479085    -0.08300
C645        C  0.47063072  0.88228339  0.98884102     0.30500
C646        C  0.49272430  0.89298765  0.00913648    -0.20300
C647        C  0.49638765  0.87312509  0.02629261    -0.08300
C648        C  0.47632960  0.84223533  0.02357115     0.30500
F649        F  0.47905128  0.82217085  0.03952031    -0.18900
H650        H  0.44077257  0.80754569  0.00043166     0.18900
H651        H  0.01235214  0.91535875  0.01380616     0.18900
F652        F  0.46883193  0.90230582  0.97210665    -0.18800
C653        C  0.29399217  0.73224745  0.92323864    -0.20300
C654        C  0.32100060  0.73106117  0.92070676    -0.08300
C655        C  0.31933824  0.70272694  0.92045493     0.30500
C656        C  0.29127358  0.67643833  0.92283755    -0.20300
C657        C  0.26433212  0.67783402  0.92475074    -0.08300
C658        C  0.26605631  0.70610257  0.92495627     0.30500
F659        F  0.24070578  0.70858025  0.92719485    -0.18900
H660        H  0.29437291  0.75357373  0.92340837     0.18900
H661        H  0.29054564  0.65494650  0.92255958     0.18900
F662        F  0.34468876  0.70033005  0.91787319    -0.18800
C663        C  0.47094257  0.83477201  0.82177757    -0.20300
C664        C  0.47575537  0.83152748  0.84925455    -0.08300
C665        C  0.00519363  0.83540279  0.86053558     0.30500
C666        C  0.02922951  0.84829782  0.84200954    -0.20300
C667        C  0.02402993  0.85027064  0.81436340    -0.08300
C668        C  0.99394205  0.83644060  0.80524674     0.30500
F669        F  0.98764186  0.83712346  0.77866556    -0.18900
H670        H  0.44847201  0.82814767  0.81461778     0.18900
H671        H  0.05202060  0.85839163  0.84962332     0.18900
F672        F  0.01152751  0.83580175  0.88725336    -0.18800
C673        C  0.16434725  0.52272295  0.81685589    -0.20300
C674        C  0.13469159  0.50952632  0.80705935    -0.08300
C675        C  0.10494810  0.99897269  0.83319401     0.30500
C676        C  0.12508023  0.54148134  0.83788677    -0.20300
C677        C  0.15375082  0.55245662  0.84952110    -0.08300
C678        C  0.17384185  0.54388937  0.83780353     0.30500
F679        F  0.20217357  0.55456690  0.84756101    -0.18900
H680        H  0.17972327  0.51521815  0.80956009     0.18900
H681        H  0.10932938  0.54807528  0.84603816     0.18900
F682        F  0.07554078  0.97735342  0.83388816    -0.18800
C683        C  0.33085116  0.86498003  0.83012187    -0.20300
C684        C  0.35137038  0.89188024  0.81733990    -0.08300
C685        C  0.38102433  0.90767536  0.82743220     0.30500
C686        C  0.39021916  0.89561436  0.84855598    -0.20300
C687        C  0.37013422  0.86760351  0.85992119    -0.08300
C688        C  0.33998119  0.85298301  0.85111191     0.30500
F689        F  0.31943421  0.82642359  0.86208851    -0.18900
H690        H  0.30777007  0.85248044  0.82314847     0.18900
H691        H  0.41355483  0.90738433  0.85491184     0.18900
F692        F  0.40169735  0.93371160  0.81576354    -0.18800
C693        C  0.21940826  0.90798173  0.72486076    -0.20300
C694        C  0.23473875  0.90635251  0.74787690    -0.08300
C695        C  0.22178489  0.90499069  0.77360344     0.30500
C696        C  0.19443754  0.90545998  0.77612517    -0.20300
C697        C  0.17961841  0.90799706  0.75318502    -0.08300
C698        C  0.19237692  0.90912908  0.72744008     0.30500
F699        F  0.17858739  0.91104397  0.70468556    -0.18900
H700        H  0.22872849  0.90910773  0.70486502     0.18900
H701        H  0.18522642  0.90458509  0.79613230     0.18900
F702        F  0.23545094  0.90309280  0.79643862    -0.18800
C703        C  0.34857800  0.83866321  0.64143581    -0.20300
C704        C  0.36705622  0.82760171  0.65157756    -0.08300
C705        C  0.37067893  0.82743399  0.67981921     0.30500
C706        C  0.35778148  0.83990078  0.69715806    -0.20300
C707        C  0.34089027  0.85268764  0.68687972    -0.08300
C708        C  0.33559237  0.85105342  0.65881046     0.30500
F709        F  0.31967933  0.86327739  0.64787086    -0.18900
H710        H  0.34537186  0.83915004  0.61978228     0.18900
H711        H  0.36214163  0.84067808  0.71871440     0.18900
F712        F  0.38800321  0.81673791  0.69067428    -0.18800
C713        C  0.04956867  0.88276563  0.66692099    -0.20300
C714        C  0.04587301  0.89900256  0.68833390    -0.08300
C715        C  0.02078600  0.90369173  0.68790925     0.30500
C716        C  0.99929769  0.89120367  0.66730742    -0.20300
C717        C  0.00222538  0.87384156  0.64651472    -0.08300
C718        C  0.02815889  0.87045665  0.64613138     0.30500
F719        F  0.03213981  0.85397899  0.62653309    -0.18900
H720        H  0.06862503  0.87875527  0.66673222     0.18900
H721        H  0.49454347  0.90399415  0.65520535     0.18900
F722        F  0.01576294  0.91850301  0.70843431    -0.18800
C723        C  0.40625201  0.49818889  0.68446397    -0.20300
C724        C  0.38119432  0.49486319  0.69960640    -0.08300
C725        C  0.37116623  0.51581445  0.69574840     0.30500
C726        C  0.38424808  0.53779707  0.67561581    -0.20300
C727        C  0.40784887  0.53976132  0.65906788    -0.08300
C728        C  0.41970621  0.52055721  0.66461877     0.30500
F729        F  0.44301204  0.52204288  0.64977351    -0.18900
H730        H  0.41382989  0.98437181  0.67929359     0.18900
H731        H  0.37479180  0.55244240  0.67208650     0.18900
F732        F  0.34720026  0.51371914  0.70993667    -0.18800
C733        C  0.02786590  0.64328263  0.52732004    -0.20300
C734        C  0.00014793  0.61726426  0.52277256    -0.08300
C735        C  0.99639300  0.60138348  0.49838597     0.30500
C736        C  0.01952418  0.61164744  0.47890506    -0.20300
C737        C  0.04670488  0.63842537  0.48280429    -0.08300
C738        C  0.05076858  0.65403666  0.50741580     0.30500
F739        F  0.07654244  0.68009592  0.51199869    -0.18900
H740        H  0.53050603  0.66099242  0.54452560     0.18900
H741        H  0.01553863  0.59930573  0.46014558     0.18900
F742        F  0.97004933  0.57614945  0.49303461    -0.18800
C743        C  0.39403717  0.70089946  0.58350021    -0.20300
C744        C  0.42050073  0.72714047  0.59081435    -0.08300
C745        C  0.44624106  0.72498574  0.59731521     0.30500
C746        C  0.44568013  0.69740142  0.59634674    -0.20300
C747        C  0.41964034  0.67116390  0.58836203    -0.08300
C748        C  0.39365374  0.67318959  0.58189142     0.30500
F749        F  0.36796758  0.64856355  0.57394975    -0.18900
H750        H  0.37392926  0.70199151  0.57839728     0.18900
H751        H  0.46598813  0.69673161  0.60153544     0.18900
F752        F  0.47196109  0.74960265  0.60518676    -0.18800
C753        C  0.38991312  0.96991166  0.35072734    -0.20300
C754        C  0.35906855  0.95344444  0.35745920    -0.08300
C755        C  0.33844537  0.95757653  0.34152044     0.30500
C756        C  0.34864295  0.97863260  0.32043738    -0.20300
C757        C  0.37959520  0.99640655  0.31478870    -0.08300
C758        C  0.40013362  0.99119553  0.32974848     0.30500
F759        F  0.43021848  0.00731002  0.32473443    -0.18900
H760        H  0.40635974  0.96720988  0.36244916     0.18900
H761        H  0.33928486  0.47542576  0.30469645     0.18900
F762        F  0.30839566  0.94213671  0.34689228    -0.18800
C763        C  0.34049706  0.99900106  0.48178399    -0.20300
C764        C  0.33283940  0.97019112  0.49114971    -0.08300
C765        C  0.33385925  0.96582040  0.51915987     0.30500
C766        C  0.34550753  0.49011348  0.53481802    -0.20300
C767        C  0.36473812  0.51950190  0.52583688    -0.08300
C768        C  0.36884945  0.52495928  0.49778061     0.30500
F769        F  0.38745097  0.55287874  0.48813197    -0.18900
H770        H  0.33944663  0.00293250  0.46033969     0.18900
H771        H  0.34175267  0.48532446  0.55633811     0.18900
F772        F  0.32639707  0.93845007  0.52929347    -0.18800
C773        C  0.41837375  0.88157624  0.51844551    -0.17900
C774        C  0.40872032  0.85077359  0.52013769    -0.08300
C775        C  0.38781374  0.83152203  0.50085176     0.30500
C776        C  0.37602629  0.84276963  0.48123970    -0.20300
C777        C  0.38439881  0.87336132  0.48058555    -0.08300
C778        C  0.40631628  0.89275147  0.49909862     0.30500
F779        F  0.41539408  0.92246849  0.49925428    -0.18900
H780        H  0.43426326  0.89695306  0.53296203     0.18900
H781        H  0.35926527  0.82726195  0.46738068     0.18900
F782        F  0.37788735  0.80163250  0.50146023    -0.18800
C783        C  0.18634936  0.79161223  0.42221542    -0.20300
C784        C  0.18689051  0.76434328  0.42157021    -0.08300
C785        C  0.21500446  0.76528514  0.42367489     0.30500
C786        C  0.24168614  0.79268131  0.42576664    -0.20300
C787        C  0.24118587  0.81986633  0.42640000    -0.08300
C788        C  0.21314844  0.81909641  0.42484695     0.30500
F789        F  0.21167766  0.84487093  0.42506054    -0.18900
H790        H  0.16515004  0.79168804  0.42063562     0.18900
H791        H  0.26289732  0.79259013  0.42717522     0.18900
F792        F  0.21693729  0.73976209  0.42346264    -0.18800
O793        O  0.77137592  0.36851592  0.43493546    -0.56800
C794        C  0.82935992  0.44414033  0.46933231     0.75800
O795        O  0.86152912  0.40217216  0.47259062    -0.57900
C796        C  0.76944346  0.34405321  0.42697329     0.75800
C797        C  0.85281037  0.43077978  0.38451185     0.78200
Cd798      Cd  0.82825456  0.39779603  0.43475836     1.37500
O799        O  0.81624167  0.41695803  0.47671450    -0.56800
O800        O  0.82478842  0.41613118  0.38930889    -0.55600
C801        C  0.86594377  0.38065679  0.46642132     0.78200
O802        O  0.86956177  0.42766889  0.40158614    -0.58000
O803        O  0.83898230  0.44918073  0.44516927    -0.56400
O804        O  0.79429959  0.34465557  0.42253081    -0.56400
O805        O  0.85420799  0.36736175  0.44439995    -0.55600
O806        O  0.89949936  0.12389220  0.57395489    -0.56800
C807        C  0.88159876  0.04852071  0.54144276     0.75800
O808        O  0.95785399  0.08401620  0.54549696    -0.57900
C809        C  0.91999832  0.14651011  0.58605261     0.75800
C810        C  0.91212823  0.05983693  0.62872311     0.78200
Cd811      Cd  0.92491342  0.09264403  0.57780647     1.37500
O812        O  0.88320306  0.04307463  0.56613048    -0.56800
O813        O  0.89718543  0.07188815  0.62027926    -0.55600
C814        C  0.98080241  0.10967311  0.54717327     0.78200
O815        O  0.93535420  0.06514730  0.61483192    -0.58000
O816        O  0.89801033  0.07545749  0.53403620    -0.56400
O817        O  0.94210814  0.14393917  0.59438476    -0.56400
O818        O  0.97923228  0.12675480  0.56499646    -0.55600
O819        O  0.89480336  0.26026956  0.60375682    -0.56800
C820        C  0.87329144  0.31653588  0.63655375     0.75800
O821        O  0.97571126  0.34353613  0.61396280    -0.57900
C822        C  0.91850942  0.25871927  0.59876470     0.75800
C823        C  0.91350726  0.33859116  0.55117432     0.78200
Cd824      Cd  0.92032892  0.31640074  0.60348138     1.37500
O825        O  0.88863122  0.30471049  0.64473329    -0.56800
O826        O  0.90053652  0.31099458  0.55678857    -0.55600
C827        C  0.97314719  0.35525897  0.63581132     0.78200
O828        O  0.93184890  0.35589459  0.56875455    -0.58000
O829        O  0.87769841  0.32545237  0.61224073    -0.56400
O830        O  0.94241314  0.28348442  0.59584657    -0.56400
O831        O  0.94691827  0.35062172  0.64146869    -0.55600
O832        O  0.76740938  0.39663851  0.72829667    -0.56800
C833        C  0.82057827  0.36696019  0.70749229     0.75800
O834        O  0.86384841  0.44953276  0.71375126    -0.57900
C835        C  0.76032086  0.40619861  0.74931211     0.75800
C836        C  0.84335376  0.40415445  0.79323837     0.78200
Cd837      Cd  0.82036360  0.41320237  0.74188054     1.37500
O838        O  0.82450239  0.36781542  0.73278538    -0.56800
O839        O  0.81558114  0.39090886  0.78753082    -0.55600
C840        C  0.85742477  0.47047457  0.71379158     0.78200
O841        O  0.86062778  0.42345327  0.77610197    -0.58000
O842        O  0.81345712  0.38565623  0.69828024    -0.56400
O843        O  0.78056349  0.41821083  0.76713616    -0.56400
O844        O  0.83561176  0.46643047  0.72906429    -0.55600
O845        O  0.63032527  0.39808752  0.78169795    -0.56800
C846        C  0.54834616  0.37334391  0.80279671     0.75800
O847        O  0.63235246  0.47054116  0.78205475    -0.57900
C848        C  0.64819358  0.40928322  0.76171221     0.75800
C849        C  0.56372371  0.40604868  0.71732700     0.78200
Cd850      Cd  0.59561971  0.41772278  0.76881328     1.37500
O851        O  0.54481010  0.37667851  0.77803093    -0.56800
O852        O  0.57555926  0.39090287  0.72578777    -0.55600
C853        C  0.61452011  0.47489513  0.79705084     0.78200
O854        O  0.56877748  0.42877357  0.73151120    -0.58000
O855        O  0.57493581  0.38873113  0.81167617    -0.56400
O856        O  0.64156382  0.42384799  0.74502306    -0.56400
O857        O  0.58742058  0.45415393  0.79694261    -0.55600
O858        O  0.93047295  0.30810162  0.87307359    -0.56800
C859        C  0.84956468  0.25957473  0.91625449     0.75800
O860        O  0.92642260  0.35778801  0.94658977    -0.57900
C861        C  0.95638522  0.32782962  0.88103186     0.75800
C862        C  0.88418738  0.35452416  0.87739179     0.78200
Cd863      Cd  0.90293162  0.31897783  0.91043125     1.37500
O864        O  0.87404189  0.26229592  0.90671125    -0.56800
O865        O  0.87452224  0.34723292  0.90145334    -0.55600
C866        C  0.93215485  0.34193114  0.96256838     0.78200
O867        O  0.90246095  0.34609852  0.86919961    -0.58000
O868        O  0.85034867  0.28372558  0.92333539    -0.56400
O869        O  0.95693571  0.34093809  0.90293182    -0.56400
O870        O  0.92156155  0.31473078  0.95588006    -0.55600
O871        O  0.61371554  0.23647317  0.10052593    -0.56800
C872        C  0.63687491  0.17663683  0.12737402     0.75800
O873        O  0.56374157  0.15607540  0.14313330    -0.57900
C874        C  0.59030708  0.23774542  0.09395494     0.75800
C875        C  0.59452561  0.15807277  0.04720005     0.78200
Cd876      Cd  0.58859158  0.18031954  0.10002952     1.37500
O877        O  0.62928339  0.19591236  0.13447028    -0.56800
O878        O  0.60912958  0.18551630  0.05351186    -0.55600
C879        C  0.53673791  0.14462920  0.13529137     0.78200
O880        O  0.57482705  0.14118937  0.06428002    -0.58000
O881        O  0.62339742  0.16072245  0.10705938    -0.56400
O882        O  0.56682667  0.21283914  0.09022105    -0.56400
O883        O  0.53315506  0.14906289  0.11068976    -0.55600
O884        O  0.69007781  0.10346887  0.18951152    -0.56800
C885        C  0.74295873  0.08517518  0.24501483     0.75800
O886        O  0.64307175  0.07288909  0.26791923    -0.57900
C887        C  0.68750174  0.12562673  0.19749469     0.75800
C888        C  0.64607227  0.02356968  0.20861609     0.78200
Cd889      Cd  0.68442161  0.08080647  0.23524450     1.37500
O890        O  0.73852189  0.09794511  0.22501147    -0.56800
O891        O  0.67055688  0.02907603  0.21981951    -0.55600
C892        C  0.66002065  0.09214648  0.28508788     0.78200
O893        O  0.63786490  0.04300841  0.21224681    -0.58000
O894        O  0.72057905  0.07095512  0.26072664    -0.56400
O895        O  0.68643110  0.12842972  0.22286027    -0.56400
O896        O  0.68800693  0.10438051  0.28013779    -0.55600
O897        O  0.86790277  0.08781720  0.28545118    -0.56800
C898        C  0.95623590  0.12316095  0.30383361     0.75800
O899        O  0.91647230  0.04317587  0.30088715    -0.57900
C900        C  0.85521212  0.08354900  0.26262188     0.75800
C901        C  0.94095157  0.08950854  0.21824406     0.78200
Cd902      Cd  0.90926151  0.07759344  0.27013051     1.37500
O903        O  0.96072981  0.11757589  0.27984029    -0.56800
O904        O  0.93021738  0.10534450  0.22781293    -0.55600
C905        C  0.89115461  0.02027251  0.29711144     0.78200
O906        O  0.93568043  0.06650150  0.23198776    -0.58000
O907        O  0.92906792  0.10944132  0.31195756    -0.56400
O908        O  0.86769563  0.07725299  0.24333456    -0.56400
O909        O  0.87515295  0.02265324  0.27879438    -0.55600
O910        O  0.63179935  0.23244168  0.40463689    -0.56800
C911        C  0.55202598  0.17543078  0.37410581     0.75800
O912        O  0.63059632  0.15150273  0.39215438    -0.57900
C913        C  0.65568585  0.23322939  0.41313842     0.75800
C914        C  0.56823082  0.15281615  0.45721234     0.78200
Cd915      Cd  0.60000051  0.17617563  0.40572988     1.37500
O916        O  0.57938842  0.19289097  0.36773122    -0.56800
O917        O  0.58162539  0.18044048  0.45158898    -0.55600
C918        C  0.61643229  0.14001225  0.37044857     0.78200
O919        O  0.57214005  0.13617151  0.44041733    -0.58000
O920        O  0.54754572  0.16083693  0.39581162    -0.56400
O921        O  0.65347287  0.20810396  0.41859511    -0.56400
O922        O  0.59398700  0.14365056  0.36616364    -0.55600
O923        O  0.62128571  0.45422365  0.06331926    -0.56800
C924        C  0.58607112  0.34829105  0.07907257     0.75800
O925        O  0.57109198  0.43018409  0.11070193    -0.57900
C926        C  0.62520034  0.44973629  0.03876329     0.75800
C927        C  0.52620634  0.38846217  0.04544201     0.78200
Cd928      Cd  0.58192443  0.40302330  0.07384780     1.37500
O929        O  0.60921499  0.37319659  0.07399152    -0.56800
O930        O  0.55193467  0.40848090  0.03761471    -0.55600
C931        C  0.59200985  0.43275669  0.12616721     0.78200
O932        O  0.52554235  0.37579573  0.06765124    -0.58000
O933        O  0.56150968  0.34880011  0.08109881    -0.56400
O934        O  0.61118230  0.42273109  0.03083805    -0.56400
O935        O  0.60611046  0.41937459  0.11849139    -0.55600
O936        O  0.73358381  0.12220565  0.92951593    -0.56800
C937        C  0.67141508  0.04531406  0.96130596     0.75800
O938        O  0.65744667  0.12977225  0.94177619    -0.57900
C939        C  0.73603624  0.14759909  0.92451184     0.75800
C940        C  0.65850093  0.06897132  0.87367661     0.78200
Cd941      Cd  0.67649625  0.09441344  0.92819060     1.37500
O942        O  0.69017152  0.07226562  0.96710520    -0.56800
O943        O  0.68500176  0.07924457  0.88250867    -0.55600
C944        C  0.64034730  0.11396318  0.96083489     0.78200
O945        O  0.64045656  0.07262773  0.88910075    -0.58000
O946        O  0.65689076  0.04134050  0.93960149    -0.56400
O947        O  0.71154111  0.14787266  0.92102169    -0.56400
O948        O  0.63805657  0.08838511  0.96339796    -0.55600
C949        C  0.65865076  0.50448425  0.03065780    -0.20300
C950        C  0.64324596  0.47519410  0.02019707    -0.08300
C951        C  0.64187063  0.47128295  0.99188398     0.30500
C952        C  0.64818513  0.99023327  0.96977186    -0.20300
C953        C  0.66502287  0.01975054  0.97944572    -0.08300
C954        C  0.67205187  0.02423007  0.00719686     0.30500
F955        F  0.68840290  0.05226717  0.01745917    -0.18900
H956        H  0.66023023  0.50824254  0.05239403     0.18900
H957        H  0.64266609  0.98607220  0.94844963     0.18900
F958        F  0.62741107  0.44349522  0.98076315    -0.18800
C959        C  0.97709451  0.14327551  0.34983589    -0.20300
C960        C  0.98176672  0.14277111  0.32177380    -0.08300
C961        C  0.01159774  0.15782885  0.31166314     0.30500
C962        C  0.53135352  0.17596155  0.32842915    -0.20300
C963        C  0.52647781  0.17005658  0.35632702    -0.08300
C964        C  0.49659744  0.15450694  0.36616270     0.30500
F965        F  0.49075045  0.14887690  0.39303538    -0.18900
H966        H  0.95447485  0.13209695  0.35820440     0.18900
H967        H  0.55407689  0.18788780  0.32033234     0.18900
F968        F  0.01732096  0.15866773  0.28466562    -0.18800
C969        C  0.61786578  0.09543318  0.30886436    -0.20300
C970        C  0.64788749  0.10112032  0.30882828    -0.08300
C971        C  0.66667771  0.11776194  0.33043350     0.30500
C972        C  0.65582150  0.12899981  0.35109964    -0.20300
C973        C  0.62623514  0.12449392  0.35046851    -0.08300
C974        C  0.60719998  0.10721648  0.32921455     0.30500
F975        F  0.57845807  0.10227872  0.32763787    -0.18900
H976        H  0.60295296  0.08293024  0.29247034     0.18900
H977        H  0.67103704  0.14232863  0.36703731     0.18900
F978        F  0.69581483  0.12382236  0.33133248    -0.18800
C979        C  0.77836245  0.07755822  0.27489101    -0.20300
C980        C  0.77244798  0.08632101  0.24969986    -0.08300
C981        C  0.79450134  0.09507157  0.22906051     0.30500
C982        C  0.82133763  0.09418803  0.23341062    -0.20300
C983        C  0.82716175  0.08537197  0.25859991    -0.08300
C984        C  0.80548160  0.07734098  0.27941079     0.30500
F985        F  0.80991059  0.06808812  0.30383190    -0.18900
H986        H  0.76192305  0.07071008  0.29109381     0.18900
H987        H  0.83762048  0.10048911  0.21710857     0.18900
F988        F  0.78990885  0.10377628  0.20442101    -0.18800
C989        C  0.62387479  0.45284641  0.16761370    -0.20300
C990        C  0.60116514  0.45192506  0.15086438    -0.08300
C991        C  0.59034476  0.47209737  0.15614908     0.30500
C992        C  0.60337314  0.49378140  0.17657500    -0.20300
C993        C  0.62714648  0.49564977  0.19239290    -0.08300
C994        C  0.63670040  0.47433337  0.18816558     0.30500
F995        F  0.65992474  0.47553018  0.20253353    -0.18900
H996        H  0.63276673  0.43767124  0.16403409     0.18900
H997        H  0.59676787  0.01091380  0.17829920     0.18900
F998        F  0.56841478  0.47208144  0.14061625    -0.18800
C999        C  0.60188914  0.10500037  0.99725936    -0.20300
C1000       C  0.62511482  0.12509359  0.98000256    -0.08300
C1001       C  0.63550685  0.15597103  0.98323499     0.30500
C1002       C  0.62404279  0.16636625  0.00408801    -0.20300
C1003       C  0.60193502  0.14636042  0.02222500    -0.08300
C1004       C  0.59024548  0.11539916  0.01800867     0.30500
F1005       F  0.56873799  0.09512234  0.03479427    -0.18900
H1006       H  0.59335879  0.08114130  0.99525506     0.18900
H1007       H  0.63355375  0.19028198  0.00677786     0.18900
F1008       F  0.65820922  0.17634951  0.96746705    -0.18800
C1009       C  0.61512541  0.32096187  0.08744603    -0.20300
C1010       C  0.58744180  0.32013399  0.08274748    -0.08300
C1011       C  0.56097290  0.29210811  0.08216014     0.30500
C1012       C  0.56228963  0.26572470  0.08597334    -0.20300
C1013       C  0.58989580  0.26643171  0.09060741    -0.08300
C1014       C  0.61640543  0.29445414  0.09150602     0.30500
F1015       F  0.64358301  0.29632926  0.09607631    -0.18900
H1016       H  0.63581067  0.34219383  0.08821991     0.18900
H1017       H  0.54149816  0.24459837  0.08521662     0.18900
F1018       F  0.53371797  0.29000766  0.07744846    -0.18800
C1019       C  0.66341765  0.17962105  0.17050564    -0.20300
C1020       C  0.65815078  0.17084237  0.14321795    -0.08300
C1021       C  0.66911936  0.15224053  0.13286805     0.30500
C1022       C  0.68135009  0.13955279  0.15035004    -0.20300
C1023       C  0.68311937  0.14543055  0.17833457    -0.08300
C1024       C  0.67579611  0.16708638  0.18796035     0.30500
F1025       F  0.67813534  0.17433503  0.21465586    -0.18900
H1026       H  0.65569881  0.19427389  0.17888507     0.18900
H1027       H  0.68749641  0.12357813  0.14223574     0.18900
F1028       F  0.66630174  0.14478390  0.10618648    -0.18800
C1029       C  0.97985154  0.08757407  0.18759865    -0.20300
C1030       C  0.95993582  0.09867934  0.19315609    -0.08300
C1031       C  0.96061153  0.12092606  0.17597027     0.30500
C1032       C  0.98189920  0.13295937  0.15489992    -0.20300
C1033       C  0.00310496  0.12322537  0.15035244    -0.08300
C1034       C  0.00124589  0.09968714  0.16651414     0.30500
F1035       F  0.53982308  0.11002572  0.17905898    -0.18900
H1036       H  0.97985357  0.07047388  0.20037808     0.18900
H1037       H  0.98246294  0.15076693  0.14274931     0.18900
F1038       F  0.94122358  0.13174473  0.17993961    -0.18800
C1039       C  0.95204294  0.33601441  0.00729302    -0.20300
C1040       C  0.95218726  0.35480676  0.98649827    -0.08300
C1041       C  0.97454988  0.38521557  0.98689680     0.30500
C1042       C  0.99742372  0.39583407  0.00638913    -0.20300
C1043       C  0.99802126  0.37671854  0.02642662    -0.08300
C1044       C  0.97446347  0.34689962  0.02727792     0.30500
F1045       F  0.97444282  0.32763819  0.04608799    -0.18900
H1046       H  0.93520504  0.31254032  0.00747400     0.18900
H1047       H  0.51960966  0.42070348  0.00517294     0.18900
F1048       F  0.97571654  0.40424290  0.96726560    -0.18800
C1049       C  0.79431173  0.23017780  0.92607565    -0.20300
C1050       C  0.82116603  0.23025418  0.91879070    -0.08300
C1051       C  0.81995755  0.20249958  0.91380336     0.30500
C1052       C  0.79243628  0.17552625  0.91617060    -0.20300
C1053       C  0.76557545  0.17574892  0.92300535    -0.08300
C1054       C  0.76694532  0.20347837  0.92799084     0.30500
F1055       F  0.74180482  0.20488695  0.93515490    -0.18900
H1056       H  0.79432992  0.25098957  0.93008448     0.18900
H1057       H  0.79202017  0.15452207  0.91213933     0.18900
F1058       F  0.84521211  0.20134110  0.90660380    -0.18800
C1059       C  0.98383436  0.32341405  0.83999068    -0.20300
C1060       C  0.98448792  0.33705132  0.86498452    -0.08300
C1061       C  0.50237647  0.33846629  0.86632896     0.30500
C1062       C  0.52681127  0.35102080  0.84817056    -0.20300
C1063       C  0.52231668  0.35434085  0.82062977    -0.08300
C1064       C  0.49255055  0.34274038  0.81119820     0.30500
F1065       F  0.48695080  0.34551643  0.78481294    -0.18900
H1066       H  0.96346985  0.30378872  0.83347682     0.18900
H1067       H  0.54939440  0.35959704  0.85595568     0.18900
F1068       F  0.50800625  0.33747855  0.89303043    -0.18800
C1069       C  0.66029061  0.02843398  0.80935127    -0.20300
C1070       C  0.62950440  0.00786637  0.80594324    -0.08300
C1071       C  0.60497174  0.50741931  0.83035969     0.30500
C1072       C  0.61793045  0.03289538  0.84275644    -0.20300
C1073       C  0.64877326  0.05154121  0.84787544    -0.08300
C1074       C  0.66988999  0.05005714  0.83004262     0.30500
F1075       F  0.69992393  0.06851361  0.83337082    -0.18900
H1076       H  0.67712162  0.02668234  0.79703525     0.18900
H1077       H  0.60111004  0.03370992  0.85583264     0.18900
F1078       F  0.57473796  0.49052655  0.82688660    -0.18800
C1079       C  0.83441182  0.37651243  0.83738976    -0.20300
C1080       C  0.85479654  0.39593497  0.81773843    -0.08300
C1081       C  0.88557114  0.40449886  0.82031737     0.30500
C1082       C  0.89507836  0.39181559  0.84050141    -0.20300
C1083       C  0.87444279  0.37120128  0.85917592    -0.08300
C1084       C  0.84414390  0.36457144  0.85812939     0.30500
F1085       F  0.82353062  0.34487609  0.87588407    -0.18900
H1086       H  0.81063267  0.36965845  0.83613887     0.18900
H1087       H  0.91861067  0.39755711  0.84112096     0.18900
F1088       F  0.90633114  0.42385939  0.80248121    -0.18800
C1089       C  0.71601662  0.40791344  0.72971732    -0.20300
C1090       C  0.73042399  0.40443822  0.75247252    -0.08300
C1091       C  0.71673785  0.40087729  0.77811627     0.30500
C1092       C  0.68942770  0.40133840  0.78087869    -0.20300
C1093       C  0.67567301  0.40615252  0.75824743    -0.08300
C1094       C  0.68916369  0.40915089  0.73254645     0.30500
F1095       F  0.67646346  0.41333661  0.71007235    -0.18900
H1096       H  0.72610277  0.41071668  0.70982582     0.18900
H1097       H  0.67954407  0.39886454  0.80082203     0.18900
F1098       F  0.72969129  0.39683860  0.80049810    -0.18800
C1099       C  0.83533358  0.33359665  0.64433345    -0.20300
C1100       C  0.85334199  0.32221510  0.65487260    -0.08300
C1101       C  0.85569675  0.32097448  0.68318089     0.30500
C1102       C  0.84245713  0.33320582  0.70029946    -0.20300
C1103       C  0.82692625  0.34721958  0.68965834    -0.08300
C1104       C  0.82220976  0.34599649  0.66149199     0.30500
F1105       F  0.80653585  0.35837832  0.65034569    -0.18900
H1106       H  0.83286891  0.33455138  0.62259839     0.18900
H1107       H  0.84640325  0.33370148  0.72192063     0.18900
F1108       F  0.87306334  0.31049533  0.69433768    -0.18800
C1109       C  0.54163677  0.37238196  0.67715897    -0.20300
C1110       C  0.54378874  0.39624495  0.69306465    -0.08300
C1111       C  0.52442664  0.40790897  0.68718130     0.30500
C1112       C  0.50268943  0.39502411  0.66670810    -0.20300
C1113       C  0.49993402  0.37048196  0.65149072    -0.08300
C1114       C  0.52010673  0.35966767  0.65664285     0.30500
F1115       F  0.51788780  0.33556434  0.64303333    -0.18900
H1116       H  0.55600862  0.36273962  0.68122361     0.18900
H1117       H  0.97641436  0.39291284  0.67629980     0.18900
F1118       F  0.52536600  0.43072501  0.70204588    -0.18800
C1119       C  0.90431800  0.00270740  0.68213587    -0.20300
C1120       C  0.87577512  0.99461029  0.69333360    -0.08300
C1121       C  0.86065792  0.00985418  0.68451957     0.30500
C1122       C  0.87341730  0.03189005  0.66448626    -0.20300
C1123       C  0.90147612  0.03934957  0.65255845    -0.08300
C1124       C  0.91713473  0.02486619  0.66201636     0.30500
F1125       F  0.94431405  0.03132689  0.65125597    -0.18900
H1126       H  0.90845870  0.48661568  0.68400825     0.18900
H1127       H  0.86056124  0.04234374  0.65751892     0.18900
F1128       F  0.83264064  0.00223353  0.69397044    -0.18800
C1129       C  0.52560403  0.14831670  0.52254235    -0.20300
C1130       C  0.50148995  0.11878693  0.52162918    -0.08300
C1131       C  0.50122544  0.09987298  0.50059737     0.30500
C1132       C  0.52405423  0.11062053  0.48071980    -0.20300
C1133       C  0.54737836  0.14054994  0.48095861    -0.08300
C1134       C  0.54815111  0.15917991  0.50241784     0.30500
F1135       F  0.57033633  0.18815241  0.50369502    -0.18900
H1136       H  0.02961743  0.16552538  0.54241172     0.18900
H1137       H  0.52264301  0.09583797  0.46436351     0.18900
F1138       F  0.47845417  0.07121456  0.49865620    -0.18800
C1139       C  0.89141807  0.20276742  0.59262961    -0.20300
C1140       C  0.91852436  0.22974270  0.59630340    -0.08300
C1141       C  0.94575616  0.22879547  0.59721285     0.30500
C1142       C  0.94580154  0.20162677  0.59425418    -0.20300
C1143       C  0.91886324  0.17476546  0.58993043    -0.08300
C1144       C  0.89154210  0.17555248  0.58925118     0.30500
F1145       F  0.86492574  0.15003666  0.58571568    -0.18900
H1146       H  0.87015405  0.20278847  0.59197413     0.18900
H1147       H  0.96712249  0.20171213  0.59492394     0.18900
F1148       F  0.97246955  0.25410003  0.60116155    -0.18800
C1149       C  0.89507115  0.47580635  0.36235934    -0.20300
C1150       C  0.86523484  0.45208965  0.36142093    -0.08300
C1151       C  0.84663509  0.45133158  0.34004895     0.30500
C1152       C  0.85737959  0.47438339  0.32078271    -0.20300
C1153       C  0.88659344  0.49897289  0.32272577    -0.08300
C1154       C  0.90559930  0.49914724  0.34342350     0.30500
F1155       F  0.93417872  0.52222202  0.34575244    -0.18900
H1156       H  0.90986253  0.47711145  0.37861084     0.18900
H1157       H  0.83297980  0.97853288  0.30703566     0.18900
F1158       F  0.81771409  0.42883423  0.33823130    -0.18800
C1159       C  0.84727193  0.49846146  0.47848400    -0.20300
C1160       C  0.83554879  0.46904845  0.48831389    -0.08300
C1161       C  0.83424369  0.46452006  0.51650748     0.30500
C1162       C  0.84463269  0.99485861  0.53187585    -0.20300
C1163       C  0.86347391  0.02403951  0.52214615    -0.08300
C1164       C  0.86821751  0.02841437  0.49402353     0.30500
F1165       F  0.88602045  0.05615225  0.48362295    -0.18900
H1166       H  0.84866026  0.50263587  0.45684754     0.18900
H1167       H  0.84046481  0.99081394  0.55346074     0.18900
F1168       F  0.82350463  0.43666671  0.52699105    -0.18800
C1169       C  0.91381962  0.38045856  0.52499505    -0.17900
C1170       C  0.90590240  0.35008302  0.52647279    -0.08300
C1171       C  0.88771192  0.33060631  0.50583677     0.30500
C1172       C  0.87638944  0.34108954  0.48518323    -0.20300
C1173       C  0.88256362  0.37101972  0.48493240    -0.08300
C1174       C  0.90216161  0.39080363  0.50464288     0.30500
F1175       F  0.90930168  0.42005065  0.50484772    -0.18900
H1176       H  0.92776395  0.39598488  0.54044789     0.18900
H1177       H  0.86143026  0.32541491  0.47031802     0.18900
F1178       F  0.87978829  0.30115373  0.50618460    -0.18800
C1179       C  0.68523279  0.28947563  0.41775630    -0.20300
C1180       C  0.68470929  0.26174772  0.41646914    -0.08300
C1181       C  0.71229667  0.26156524  0.41840132     0.30500
C1182       C  0.73949021  0.28834891  0.42155563    -0.20300
C1183       C  0.74004283  0.31604399  0.42326259    -0.08300
C1184       C  0.71249632  0.31631583  0.42134516     0.30500
F1185       F  0.71187085  0.34249761  0.42254755    -0.18900
H1186       H  0.66443924  0.29036902  0.41627389     0.18900
H1187       H  0.76022847  0.28733138  0.42291691     0.18900
F1188       F  0.71319314  0.23552581  0.41681920    -0.18800
O1189       O  0.76921387  0.87083849  0.43165078    -0.56800
C1190       C  0.83231135  0.94879170  0.46796367     0.75800
O1191       O  0.86103829  0.90365149  0.46951938    -0.57900
C1192       C  0.76763373  0.84539383  0.42969062     0.75800
C1193       C  0.84661811  0.92947122  0.38045725     0.78200
Cd1194     Cd  0.82657050  0.90028694  0.43319153     1.37500
O1195       O  0.81467760  0.92173754  0.47442803    -0.56800
O1196       O  0.81957850  0.91820786  0.38858324    -0.55600
C1197       C  0.86621017  0.88319532  0.46120268     0.78200
O1198       O  0.86396670  0.92479074  0.39550055    -0.58000
O1199       O  0.84514691  0.95290132  0.44512435    -0.56400
O1200       O  0.79266240  0.84570363  0.42960822    -0.56400
O1201       O  0.85420700  0.87108807  0.43886615    -0.55600
O1202       O  0.89618055  0.62312592  0.57425138    -0.56800
C1203       C  0.87840294  0.54349067  0.54277285     0.75800
O1204       O  0.94750542  0.59409286  0.53372643    -0.57900
C1205       C  0.91814084  0.64645501  0.58401880     0.75800
C1206       C  0.90757409  0.55982773  0.62860933     0.78200
Cd1207     Cd  0.92102426  0.59146318  0.57649005     1.37500
O1208       O  0.89052028  0.53924441  0.56334013    -0.56800
O1209       O  0.89171994  0.57050531  0.61919198    -0.55600
C1210       C  0.97432999  0.60813661  0.54200810     0.78200
O1211       O  0.93106013  0.56548825  0.61494001    -0.58000
O1212       O  0.88434744  0.57024155  0.53844473    -0.56400
O1213       O  0.94088228  0.64408730  0.59069775    -0.56400
O1214       O  0.97740873  0.61428735  0.56713868    -0.55600
O1215       O  0.89619093  0.76267141  0.59659463    -0.56800
C1216       C  0.87626017  0.81867859  0.62970275     0.75800
O1217       O  0.97810847  0.84226587  0.60740058    -0.57900
C1218       C  0.91952137  0.76041465  0.59164475     0.75800
C1219       C  0.91580989  0.84004827  0.54255102     0.78200
Cd1220     Cd  0.92289354  0.81871903  0.59547801     1.37500
O1221       O  0.89030398  0.80506940  0.63667580    -0.56800
O1222       O  0.90258602  0.81254911  0.54856429    -0.55600
C1223       C  0.97667726  0.85708029  0.62746337     0.78200
O1224       O  0.93446950  0.85743232  0.55987975    -0.58000
O1225       O  0.88199937  0.82985175  0.60616815    -0.56400
O1226       O  0.94368152  0.78479050  0.58795190    -0.56400
O1227       O  0.95142076  0.85574512  0.63123651    -0.55600
O1228       O  0.77065916  0.89542396  0.72698155    -0.56800
C1229       C  0.82459883  0.86658671  0.70465643     0.75800
O1230       O  0.86865958  0.94876945  0.71341918    -0.57900
C1231       C  0.76415550  0.90620171  0.74750068     0.75800
C1232       C  0.84744923  0.90426951  0.79158559     0.78200
Cd1233     Cd  0.82388904  0.91180346  0.74015072     1.37500
O1234       O  0.83214829  0.86897408  0.72924884    -0.56800
O1235       O  0.82002227  0.88844806  0.78505310    -0.55600
C1236       C  0.86039596  0.96831495  0.71167593     0.78200
O1237       O  0.86376180  0.92512858  0.77526507    -0.58000
O1238       O  0.81391589  0.88306977  0.69714844    -0.56400
O1239       O  0.78463267  0.91822537  0.76514792    -0.56400
O1240       O  0.83719696  0.96316273  0.72533461    -0.55600
O1241       O  0.63816548  0.90750152  0.77868588    -0.56800
C1242       C  0.55135818  0.87875060  0.79477982     0.75800
O1243       O  0.63747507  0.97750785  0.77230057    -0.57900
C1244       C  0.65360221  0.91337103  0.75701031     0.75800
C1245       C  0.57262013  0.91096284  0.70871690     0.78200
Cd1246     Cd  0.60124803  0.92277787  0.76177295     1.37500
O1247       O  0.57849651  0.88847461  0.80187044    -0.56800
O1248       O  0.58334963  0.89535866  0.71847079    -0.55600
C1249       C  0.61986273  0.98077628  0.78854600     0.78200
O1250       O  0.57708644  0.93375088  0.72251261    -0.58000
O1251       O  0.54780639  0.88771052  0.77203335    -0.56400
O1252       O  0.64477813  0.92322823  0.73764208    -0.56400
O1253       O  0.59373798  0.95854878  0.79046857    -0.55600
O1254       O  0.92351988  0.80847457  0.86429526    -0.56800
C1255       C  0.85091707  0.76309742  0.91616569     0.75800
O1256       O  0.93497565  0.85803082  0.94442194    -0.57900
C1257       C  0.95063909  0.81827465  0.87146672     0.75800
C1258       C  0.89036844  0.85893062  0.87789799     0.78200
Cd1259     Cd  0.90658045  0.81974900  0.90846890     1.37500
O1260       O  0.87431087  0.76404553  0.90581488    -0.56800
O1261       O  0.87294230  0.84081630  0.89561828    -0.55600
C1262       C  0.93828986  0.84045702  0.96028322     0.78200
O1263       O  0.91617230  0.86102602  0.87620889    -0.58000
O1264       O  0.85345997  0.78805048  0.92311542    -0.56400
O1265       O  0.95612688  0.82534198  0.89616125    -0.56400
O1266       O  0.92497430  0.81322145  0.95328662    -0.55600
O1267       O  0.61434593  0.73582460  0.09812014    -0.56800
C1268       C  0.63375844  0.67219657  0.13295338     0.75800
O1269       O  0.56345669  0.65435062  0.14518988    -0.57900
C1270       C  0.59021111  0.73734424  0.09710088     0.75800
C1271       C  0.59582641  0.65956886  0.04942143     0.78200
Cd1272     Cd  0.58886694  0.67960869  0.10287336     1.37500
O1273       O  0.62805159  0.69311465  0.13883056    -0.56800
O1274       O  0.61328992  0.68569559  0.05805031    -0.55600
C1275       C  0.53659564  0.64190633  0.13679899     0.78200
O1276       O  0.57347222  0.64334565  0.06454308    -0.58000
O1277       O  0.62028380  0.65649339  0.11252769    -0.56400
O1278       O  0.56602232  0.71270085  0.09923386    -0.56400
O1279       O  0.53325296  0.64642104  0.11211262    -0.55600
O1280       O  0.69635646  0.60601712  0.19882562    -0.56800
C1281       C  0.74114815  0.57883431  0.25019358     0.75800
O1282       O  0.64444199  0.56450555  0.27878388    -0.57900
C1283       C  0.68308040  0.62064750  0.20545759     0.75800
C1284       C  0.64398491  0.52164146  0.21080476     0.78200
Cd1285     Cd  0.68285894  0.57604191  0.24163340     1.37500
O1286       O  0.71620151  0.55564645  0.25500176    -0.56800
O1287       O  0.66105606  0.52171731  0.22937462    -0.55600
C1288       C  0.66171536  0.58620865  0.29384542     0.78200
O1289       O  0.64321537  0.54575832  0.20791097    -0.58000
O1290       O  0.73948350  0.60109994  0.24110336    -0.56400
O1291       O  0.67227340  0.61635370  0.22921496    -0.56400
O1292       O  0.68861482  0.60142898  0.28558150    -0.55600
O1293       O  0.88000346  0.60427149  0.27321072    -0.56800
C1294       C  0.95797518  0.62620137  0.30500603     0.75800
O1295       O  0.91517372  0.55136467  0.31243833    -0.57900
C1296       C  0.85588914  0.58136692  0.26585856     0.75800
C1297       C  0.94506452  0.58727563  0.22231908     0.78200
Cd1298     Cd  0.91177364  0.57897331  0.27282277     1.37500
O1299       O  0.96332521  0.61751990  0.28266324    -0.56800
O1300       O  0.92728480  0.59779196  0.22550506    -0.55600
C1301       C  0.89599628  0.52538090  0.30485829     0.78200
O1302       O  0.94481383  0.57026896  0.24096514    -0.58000
O1303       O  0.93043330  0.61452041  0.31196508    -0.56400
O1304       O  0.85795533  0.55807774  0.26135300    -0.56400
O1305       O  0.88462453  0.52360018  0.28172523    -0.55600
O1306       O  0.63304635  0.72847432  0.40746900    -0.56800
C1307       C  0.55764992  0.67345959  0.37691518     0.75800
O1308       O  0.63723956  0.65206540  0.39818112    -0.57900
C1309       C  0.65662471  0.73110054  0.41858279     0.75800
C1310       C  0.57086709  0.64834565  0.46340407     0.78200
Cd1311     Cd  0.60266254  0.67220256  0.41176480     1.37500
O1312       O  0.58416260  0.68161392  0.36846814    -0.56800
O1313       O  0.58465152  0.67595156  0.45782550    -0.55600
C1314       C  0.62006437  0.63398911  0.38040045     0.78200
O1315       O  0.57353736  0.63148931  0.44599451    -0.58000
O1316       O  0.55303638  0.66765417  0.40192988    -0.56400
O1317       O  0.65496121  0.70693674  0.42676384    -0.56400
O1318       O  0.59430163  0.63187971  0.37872823    -0.55600
O1319       O  0.62109351  0.95205264  0.05989131    -0.56800
C1320       C  0.58501851  0.84751730  0.08088393     0.75800
O1321       O  0.57161195  0.93110456  0.10919717    -0.57900
C1322       C  0.62350119  0.94621905  0.03535841     0.75800
C1323       C  0.52335055  0.88420176  0.04409586     0.78200
Cd1324     Cd  0.58033726  0.90186855  0.07248544     1.37500
O1325       O  0.60378367  0.86875211  0.06605603    -0.56800
O1326       O  0.54715529  0.90846077  0.03923491    -0.55600
C1327       C  0.59359172  0.93469277  0.12375927     0.78200
O1328       O  0.52477659  0.86927389  0.06385130    -0.58000
O1329       O  0.56448293  0.85148324  0.09150094    -0.56400
O1330       O  0.60806440  0.91896746  0.02845816    -0.56400
O1331       O  0.60776783  0.92158824  0.11551083    -0.55600
O1332       O  0.73453733  0.62813468  0.93559968    -0.56800
C1333       C  0.67399002  0.55104994  0.96689386     0.75800
O1334       O  0.65573313  0.63144339  0.94200513    -0.57900
C1335       C  0.73673975  0.65257173  0.92740833     0.75800
C1336       C  0.65758808  0.56718709  0.87982655     0.78200
Cd1337     Cd  0.67788992  0.59818684  0.93176957     1.37500
O1338       O  0.68546816  0.57787409  0.97516568    -0.56800
O1339       O  0.68417270  0.57741423  0.88849044    -0.55600
C1340       C  0.63966072  0.61617373  0.96179462     0.78200
O1341       O  0.64059313  0.57372067  0.89391671    -0.58000
O1342       O  0.66688297  0.54686540  0.94215177    -0.56400
O1343       O  0.71227071  0.65156164  0.92085475    -0.56400
O1344       O  0.63898369  0.59148813  0.96577039    -0.55600
C1345       C  0.66018946  0.99986375  0.02506484    -0.20300
C1346       C  0.64145747  0.97052527  0.01566944    -0.08300
C1347       C  0.63670400  0.96582582  0.98757828     0.30500
C1348       C  0.65366691  0.49619010  0.97466618    -0.20300
C1349       C  0.66716074  0.52548242  0.98519455    -0.08300
C1350       C  0.67051762  0.52937723  0.01345035     0.30500
F1351       F  0.68361358  0.55714193  0.02462674    -0.18900
H1352       H  0.66442640  0.00418388  0.04656700     0.18900
H1353       H  0.65087326  0.49242909  0.95297214     0.18900
F1354       F  0.61911857  0.93792204  0.97744828    -0.18800
C1355       C  0.97797450  0.64729691  0.35076429    -0.20300
C1356       C  0.98295176  0.64688335  0.32277227    -0.08300
C1357       C  0.01275341  0.66257093  0.31274989     0.30500
C1358       C  0.53790538  0.67000233  0.33008969    -0.20300
C1359       C  0.53280944  0.66834777  0.35820623    -0.08300
C1360       C  0.50302306  0.65733528  0.36779845     0.30500
F1361       F  0.49699436  0.65600348  0.39476590    -0.18900
H1362       H  0.95530637  0.63563115  0.35899657     0.18900
H1363       H  0.56052415  0.67859577  0.32207485     0.18900
F1364       F  0.01856267  0.66366158  0.28574600    -0.18800
C1365       C  0.61989919  0.58323987  0.32349417    -0.20300
C1366       C  0.65094347  0.59465789  0.31884505    -0.08300
C1367       C  0.67145198  0.61658874  0.33674917     0.30500
C1368       C  0.66108564  0.62775903  0.35785219    -0.20300
C1369       C  0.63013720  0.61782545  0.36136284    -0.08300
C1370       C  0.60955250  0.59480973  0.34432229     0.30500
F1371       F  0.57941982  0.58420374  0.34705568    -0.18900
H1372       H  0.60359651  0.56641267  0.31012900     0.18900
H1373       H  0.67747659  0.64542213  0.37055016     0.18900
F1374       F  0.70165855  0.62822235  0.33326721    -0.18800
C1375       C  0.79727951  0.60712201  0.25772138    -0.20300
C1376       C  0.77049175  0.57965391  0.25488518    -0.08300
C1377       C  0.77206882  0.55299129  0.25658853     0.30500
C1378       C  0.79983122  0.55390721  0.26014618    -0.20300
C1379       C  0.82669704  0.58131867  0.26269337    -0.08300
C1380       C  0.82504785  0.60800755  0.26192442     0.30500
F1381       F  0.85024840  0.63499536  0.26480780    -0.18900
H1382       H  0.79670581  0.62792849  0.25686580     0.18900
H1383       H  0.80024738  0.53301164  0.26094943     0.18900
F1384       F  0.74687283  0.52590300  0.25420478    -0.18800
C1385       C  0.62647523  0.95524303  0.16471765    -0.20300
C1386       C  0.60345481  0.95421027  0.14830385    -0.08300
C1387       C  0.59230956  0.97398728  0.15421453     0.30500
C1388       C  0.60498304  0.99510930  0.17510198    -0.20300
C1389       C  0.62917549  0.99728417  0.19047687    -0.08300
C1390       C  0.63923002  0.97643929  0.18554303     0.30500
F1391       F  0.66229974  0.97733558  0.19995355    -0.18900
H1392       H  0.63550661  0.94020794  0.16078338     0.18900
H1393       H  0.59550228  0.50987946  0.17940530     0.18900
F1394       F  0.57042406  0.97422715  0.13882508    -0.18800
C1395       C  0.60162189  0.60700531  0.99827026    -0.20300
C1396       C  0.62418985  0.62716335  0.98059861    -0.08300
C1397       C  0.63459082  0.65802778  0.98386373     0.30500
C1398       C  0.62398150  0.66837739  0.00543315    -0.20300
C1399       C  0.60257169  0.64824370  0.02397052    -0.08300
C1400       C  0.59076437  0.61732696  0.01962386     0.30500
F1401       F  0.57040930  0.59704979  0.03717148    -0.18900
H1402       H  0.59329004  0.58317744  0.99629698     0.18900
H1403       H  0.63350667  0.69226825  0.00830452     0.18900
F1404       F  0.65669641  0.67837787  0.96757195    -0.18800
C1405       C  0.61101989  0.81656828  0.07498421    -0.20300
C1406       C  0.58678959  0.81956873  0.08556514    -0.08300
C1407       C  0.56425699  0.79547838  0.10053346     0.30500
C1408       C  0.56567091  0.76903537  0.10413347    -0.20300
C1409       C  0.58984913  0.76606149  0.09357431    -0.08300
C1410       C  0.61271803  0.79026078  0.07910116     0.30500
F1411       F  0.63620789  0.78816009  0.06813642    -0.18900
H1412       H  0.62870026  0.83460608  0.06342502     0.18900
H1413       H  0.54785089  0.75085371  0.11544721     0.18900
F1414       F  0.54064292  0.79724579  0.11165714    -0.18800
C1415       C  0.65777238  0.67344336  0.17734822    -0.20300
C1416       C  0.65317777  0.66474723  0.14998761    -0.08300
C1417       C  0.66367753  0.64547103  0.14032256     0.30500
C1418       C  0.67615591  0.63332869  0.15818075    -0.20300
C1419       C  0.67790007  0.63969787  0.18603384    -0.08300
C1420       C  0.66977675  0.66089908  0.19527740     0.30500
F1421       F  0.67191125  0.66832557  0.22192712    -0.18900
H1422       H  0.65013090  0.68833925  0.18530377     0.18900
H1423       H  0.68232546  0.61719636  0.15050686     0.18900
F1424       F  0.66041946  0.63702646  0.11389215    -0.18800
C1425       C  0.99592145  0.60055277  0.20422499    -0.20300
C1426       C  0.96697317  0.59654863  0.19945974    -0.08300
C1427       C  0.96093859  0.60490971  0.17411540     0.30500
C1428       C  0.98374328  0.61770233  0.15426685    -0.20300
C1429       C  0.01316398  0.62317263  0.15961063    -0.08300
C1430       C  0.01888026  0.61404991  0.18478853     0.30500
F1431       F  0.54105517  0.60921970  0.18168320    -0.18900
H1432       H  0.00128432  0.59469303  0.22367586     0.18900
H1433       H  0.97869503  0.62449306  0.13513853     0.18900
F1434       F  0.93316613  0.60116288  0.16869063    -0.18800
C1435       C  0.96074497  0.83044402  0.00159361    -0.20300
C1436       C  0.95793917  0.85109724  0.98478430    -0.08300
C1437       C  0.97626219  0.88185557  0.99022018     0.30500
C1438       C  0.99783120  0.89154802  0.01091864    -0.20300
C1439       C  0.00162100  0.87093183  0.02688849    -0.08300
C1440       C  0.98217833  0.84012791  0.02241456     0.30500
F1441       F  0.98483350  0.81923546  0.03717649    -0.18900
H1442       H  0.94702442  0.80663589  0.99802810     0.18900
H1443       H  0.50775716  0.91687579  0.01078201     0.18900
F1444       F  0.97440662  0.90272634  0.97474906    -0.18800
C1445       C  0.79501227  0.73541852  0.92429830    -0.20300
C1446       C  0.82198868  0.73462355  0.91974217    -0.08300
C1447       C  0.82074720  0.70653720  0.91845543     0.30500
C1448       C  0.79314500  0.68000179  0.92159318    -0.20300
C1449       C  0.76610800  0.68082082  0.92542726    -0.08300
C1450       C  0.76737510  0.70892399  0.92685636     0.30500
F1451       F  0.74194936  0.71088575  0.93109760    -0.18900
H1452       H  0.79520370  0.75663481  0.92547307     0.18900
H1453       H  0.79283303  0.65872796  0.92043316     0.18900
F1454       F  0.84620493  0.70464979  0.91431368    -0.18800
C1455       C  0.96987918  0.82346660  0.82379161    -0.20300
C1456       C  0.97523944  0.82413890  0.85175287    -0.08300
C1457       C  0.50539243  0.84060976  0.85781531     0.30500
C1458       C  0.52973210  0.85428166  0.83960138    -0.20300
C1459       C  0.52514208  0.85949222  0.81255526    -0.08300
C1460       C  0.49527393  0.84877336  0.80364388     0.30500
F1461       F  0.48953049  0.85313126  0.77772813    -0.18900
H1462       H  0.94713510  0.81479202  0.81638584     0.18900
H1463       H  0.55233035  0.86211719  0.84704791     0.18900
F1464       F  0.51106682  0.83743006  0.88406849    -0.18800
C1465       C  0.65629453  0.51995331  0.81942930    -0.20300
C1466       C  0.62521844  0.50166796  0.81507573    -0.08300
C1467       C  0.60834240  0.01132209  0.82209452     0.30500
C1468       C  0.61570276  0.53001663  0.85023308    -0.20300
C1469       C  0.64674718  0.54710928  0.85562272    -0.08300
C1470       C  0.66697616  0.54217904  0.83950083     0.30500
F1471       F  0.69714928  0.55796030  0.84381045    -0.18900
H1472       H  0.67247415  0.51609544  0.80815384     0.18900
H1473       H  0.59954809  0.53313643  0.86231054     0.18900
F1474       F  0.57829935  0.99282236  0.81891602    -0.18800
C1475       C  0.84033371  0.88045077  0.83736639    -0.20300
C1476       C  0.85979756  0.89741675  0.81618274    -0.08300
C1477       C  0.89034721  0.90479532  0.81749921     0.30500
C1478       C  0.90049709  0.89359912  0.83849289    -0.20300
C1479       C  0.88061649  0.87514028  0.85886342    -0.08300
C1480       C  0.85059044  0.86968027  0.85861609     0.30500
F1481       F  0.83065776  0.85272208  0.87815322    -0.18900
H1482       H  0.81678336  0.87469181  0.83704668     0.18900
H1483       H  0.92373594  0.89832634  0.83808635     0.18900
F1484       F  0.91000263  0.92103891  0.79750192    -0.18800
C1485       C  0.71776753  0.90352044  0.72710831    -0.20300
C1486       C  0.73469317  0.90574218  0.75027927    -0.08300
C1487       C  0.72392716  0.90912189  0.77572919     0.30500
C1488       C  0.69713470  0.91065739  0.77781520    -0.20300
C1489       C  0.68079461  0.90953360  0.75457003    -0.08300
C1490       C  0.69130781  0.90569460  0.72913274     0.30500
F1491       F  0.67600199  0.90393611  0.70616459    -0.18900
H1492       H  0.72547270  0.90096569  0.70730517     0.18900
H1493       H  0.68961609  0.91356110  0.79758517     0.18900
F1494       F  0.73928909  0.91098176  0.79867560    -0.18800
C1495       C  0.84043910  0.83797651  0.63911671    -0.20300
C1496       C  0.85623317  0.82370744  0.64855672    -0.08300
C1497       C  0.85633996  0.81879170  0.67659952     0.30500
C1498       C  0.84369677  0.83076405  0.69477630    -0.20300
C1499       C  0.83052202  0.84761277  0.68541299    -0.08300
C1500       C  0.82759493  0.84973319  0.65726515     0.30500
F1501       F  0.81443505  0.86515060  0.64718057    -0.18900
H1502       H  0.83959854  0.84171419  0.61759925     0.18900
H1503       H  0.84596139  0.82842801  0.71634502     0.18900
F1504       F  0.87076352  0.80459225  0.68667227    -0.18800
C1505       C  0.55518235  0.88014647  0.66616194    -0.20300
C1506       C  0.55423008  0.90159536  0.68352977    -0.08300
C1507       C  0.53286806  0.91090574  0.67836102     0.30500
C1508       C  0.51164932  0.89741896  0.65766181    -0.20300
C1509       C  0.51124477  0.87450505  0.64143804    -0.08300
C1510       C  0.53413118  0.86686510  0.64522344     0.30500
F1511       F  0.53518851  0.84533166  0.62984884    -0.18900
H1512       H  0.57152408  0.87271907  0.66948493     0.18900
H1513       H  0.97962983  0.89419471  0.66827422     0.18900
F1514       F  0.53091293  0.93142302  0.69454268    -0.18800
C1515       C  0.89872546  0.50102002  0.68048369    -0.20300
C1516       C  0.87335032  0.49699192  0.69552470    -0.08300
C1517       C  0.86155494  0.51633663  0.69033573     0.30500
C1518       C  0.87365599  0.53760691  0.66939684    -0.20300
C1519       C  0.89803204  0.54049121  0.65337260    -0.08300
C1520       C  0.91105411  0.52252362  0.65982105     0.30500
F1521       F  0.93466828  0.52445188  0.64518352    -0.18900
H1522       H  0.91643084  0.99124835  0.68845119     0.18900
H1523       H  0.86319996  0.55122675  0.66512495     0.18900
F1524       F  0.83729633  0.51367869  0.70442866    -0.18800
C1525       C  0.53041108  0.64524089  0.52978909    -0.20300
C1526       C  0.50807223  0.61495335  0.53095254    -0.08300
C1527       C  0.50875373  0.59520030  0.51125081     0.30500
C1528       C  0.53028353  0.60589698  0.49023082    -0.20300
C1529       C  0.55143780  0.63653143  0.48812499    -0.08300
C1530       C  0.55166690  0.65599713  0.50857703     0.30500
F1531       F  0.57169170  0.68573043  0.50759072    -0.18900
H1532       H  0.03127722  0.65606239  0.54572440     0.18900
H1533       H  0.52944807  0.59036870  0.47487548     0.18900
F1534       F  0.48784293  0.56569454  0.51155891    -0.18800
C1535       C  0.89134200  0.70419077  0.58844633    -0.20300
C1536       C  0.91887080  0.73106931  0.59034508    -0.08300
C1537       C  0.94584707  0.72961808  0.59105043     0.30500
C1538       C  0.94522561  0.70203073  0.58952033    -0.20300
C1539       C  0.91782690  0.67521729  0.58693362    -0.08300
C1540       C  0.89076670  0.67652876  0.58660124     0.30500
F1541       F  0.86373928  0.65111592  0.58480803    -0.18900
H1542       H  0.87025229  0.70459242  0.58807806     0.18900
H1543       H  0.96637051  0.70173324  0.58990544     0.18900
F1544       F  0.97295877  0.75484486  0.59343469    -0.18800
C1545       C  0.88886912  0.96582805  0.35058060    -0.20300
C1546       C  0.85770936  0.94875036  0.35581626    -0.08300
C1547       C  0.83776179  0.95308104  0.33912889     0.30500
C1548       C  0.84887220  0.97485315  0.31867227    -0.20300
C1549       C  0.88004437  0.99330856  0.31469853    -0.08300
C1550       C  0.89998789  0.98804177  0.33046893     0.30500
F1551       F  0.93028783  0.00507300  0.32717093    -0.18900
H1552       H  0.90482555  0.96309475  0.36302875     0.18900
H1553       H  0.84227576  0.47372877  0.30510922     0.18900
F1554       F  0.80751248  0.93741155  0.34341115    -0.18800
C1555       C  0.85640925  0.00385026  0.47641780    -0.20300
C1556       C  0.83935481  0.97445844  0.48631859    -0.08300
C1557       C  0.83255275  0.97028450  0.51420646     0.30500
C1558       C  0.84641898  0.48896706  0.53418425    -0.20300
C1559       C  0.85988977  0.51839200  0.52429155    -0.08300
C1560       C  0.85920791  0.52296797  0.49626795     0.30500
F1561       F  0.87235872  0.55107304  0.48584377    -0.18900
H1562       H  0.86183210  0.00781363  0.45499946     0.18900
H1563       H  0.84665775  0.48487908  0.55571858     0.18900
F1564       F  0.81601905  0.94239682  0.52471894    -0.18800
C1565       C  0.91787768  0.88227904  0.51559130    -0.17900
C1566       C  0.90808262  0.85149962  0.51784442    -0.08300
C1567       C  0.88780613  0.83192501  0.49830518     0.30500
C1568       C  0.87606432  0.84278240  0.47834547    -0.20300
C1569       C  0.88384278  0.87315551  0.47780668    -0.08300
C1570       C  0.90574307  0.89298720  0.49599362     0.30500
F1571       F  0.91454416  0.92264798  0.49557782    -0.18900
H1572       H  0.93357309  0.89793260  0.53006679     0.18900
H1573       H  0.85932733  0.82710609  0.46455409     0.18900
F1574       F  0.87797119  0.80206949  0.49931902    -0.18800
C1575       C  0.68422447  0.78775754  0.41941750    -0.20300
C1576       C  0.68472410  0.76057175  0.42172719    -0.08300
C1577       C  0.71253172  0.76181690  0.42693943     0.30500
C1578       C  0.73894921  0.78936932  0.42965463    -0.20300
C1579       C  0.73860319  0.81659079  0.42744981    -0.08300
C1580       C  0.71077090  0.81548361  0.42243780     0.30500
F1581       F  0.70919056  0.84108038  0.42002631    -0.18900
H1582       H  0.66321669  0.78756105  0.41541315     0.18900
H1583       H  0.75987843  0.78931914  0.43342636     0.18900
F1584       F  0.71448806  0.73637275  0.42878324    -0.18800
loop_ 
_geom_bond_atom_site_label_1 
_geom_bond_atom_site_label_2 
_geom_bond_distance 
_geom_bond_site_symmetry_2 
_ccdc_geom_bond_type 
O1            C4   1.267       .  A
O1           Cd6   2.513       .  S
C2           O11   1.264       .  A
C2            O7   1.268       .  A
C2          C368   1.486       .  S
O3            C9   1.262       .  A
O3           Cd6   2.445       .  S
C4           O12   1.265       .  A
C4          C391   1.492       .  S
C5           O10   1.267       .  A
C5            O8   1.266       .  A
C5          C358   1.491       .  S
Cd6          O13   2.534       .  S
Cd6          O12   2.477       .  S
Cd6          O11   2.452       .  S
Cd6           O7   2.502       .  S
Cd6          O10   2.494       .  S
Cd6           O8   2.490       .  S
C9           O13   1.268       .  A
C9          C381   1.485       .  S
O14          C17   1.268       .  A
O14         Cd19   2.508       .  S
C15          O24   1.269       .  A
C15          O20   1.263       .  A
C15         C371   1.482       .  S
O16          C22   1.263       .  A
O16         Cd19   2.502       .  S
C17          O25   1.265       .  A
C17         C351   1.485       .  S
C18          O23   1.268       .  A
C18          O21   1.264       .  A
C18         C331   1.495       .  S
Cd19         O26   2.515       .  S
Cd19         O25   2.472       .  S
Cd19         O24   2.512       .  S
Cd19         O20   2.420       .  S
Cd19         O23   2.529       .  S
Cd19         O21   2.476       .  S
C22          O26   1.266       .  A
C22        C1130   1.494       .  S
O27          C30   1.268       .  A
O27         Cd32   2.505       .  S
C28          O37   1.265       .  A
C28          O33   1.267       .  A
C28         C308   1.486       .  S
O29          C35   1.265       .  A
O29         Cd32   2.499       .  S
C30          O38   1.265       .  A
C30         C348   1.490       .  S
C31          O36   1.267       .  A
C31          O34   1.264       .  A
C31         C378   1.486       .  S
Cd32         O39   2.500       .  S
Cd32         O38   2.466       .  S
Cd32         O37   2.461       .  S
Cd32         O33   2.491       .  S
Cd32         O36   2.492       .  S
Cd32         O34   2.490       .  S
C35          O39   1.263       .  A
C35        C1113   1.490       .  S
O40          C43   1.265       .  A
O40         Cd45   2.502       .  S
C41          O50   1.265       .  A
C41          O46   1.263       .  A
C41         C311   1.485       .  S
O42          C48   1.263       .  A
O42         Cd45   2.490       .  S
C43          O51   1.264       .  A
C43         C298   1.487       .  S
C44          O49   1.269       .  A
C44          O47   1.266       .  A
C44         C288   1.490       .  S
Cd45         O52   2.505       .  S
Cd45         O51   2.487       .  S
Cd45         O50   2.487       .  S
Cd45         O46   2.482       .  S
Cd45         O49   2.503       .  S
Cd45         O47   2.462       .  S
C48          O52   1.266       .  A
C48         C724   1.490       .  S
O53          C56   1.267       .  A
O53         Cd58   2.480       .  S
C54          O63   1.263       .  A
C54          O59   1.264       .  A
C54         C271   1.486       .  S
O55          C61   1.266       .  A
O55         Cd58   2.488       .  S
C56          O64   1.267       .  A
C56         C301   1.487       .  S
C57          O62   1.267       .  A
C57          O60   1.264       .  A
C57         C318   1.487       .  S
Cd58         O65   2.498       .  S
Cd58         O64   2.479       .  S
Cd58         O63   2.468       .  S
Cd58         O59   2.504       .  S
Cd58         O62   2.505       .  S
Cd58         O60   2.478       .  S
C61          O65   1.266       .  A
C61         C674   1.490       .  S
O66          C69   1.265       .  A
O66         Cd71   2.477       .  S
C67          O76   1.266       .  A
C67          O72   1.269       .  A
C67         C258   1.495       .  S
O68          C74   1.266       .  A
O68         Cd71   2.508       .  S
C69          O77   1.264       .  A
C69         C268   1.486       .  S
C70          O75   1.265       .  A
C70          O73   1.265       .  A
C70         C291   1.488       .  S
Cd71         O78   2.488       .  S
Cd71         O77   2.482       .  S
Cd71         O76   2.479       .  S
Cd71         O72   2.519       .  S
Cd71         O75   2.498       .  S
Cd71         O73   2.479       .  S
C74          O78   1.265       .  A
C74         C248   1.489       .  S
O79          C82   1.269       .  A
O79         Cd84   2.522       .  S
C80          O89   1.262       .  A
C80          O85   1.268       .  A
C80         C228   1.490       .  S
O81          C87   1.264       .  A
O81         Cd84   2.510       .  S
C82          O90   1.266       .  A
C82         C221   1.494       .  S
C83          O88   1.268       .  A
C83          O86   1.263       .  A
C83         C211   1.492       .  S
Cd84         O91   2.511       .  S
Cd84         O90   2.484       .  S
Cd84         O89   2.457       .  S
Cd84         O85   2.518       .  S
Cd84         O88   2.524       .  S
Cd84         O86   2.476       .  S
C87          O91   1.265       .  A
C87        C1033   1.495       .  S
O92          C95   1.265       .  A
O92         Cd97   2.499       .  S
C93         O102   1.266       .  A
C93          O98   1.268       .  A
C93         C188   1.491       .  S
O94         C100   1.268       .  A
O94         Cd97   2.503       .  S
C95         O103   1.262       .  A
C95         C231   1.489       .  S
C96         O101   1.264       .  A
C96          O99   1.264       .  A
C96         C597   1.493   1_545  S
Cd97        O104   2.478       .  S
Cd97        O103   2.491       .  S
Cd97        O102   2.487       .  S
Cd97         O98   2.508       .  S
Cd97        O101   2.508       .  S
Cd97         O99   2.502       .  S
C100        O104   1.265       .  A
C100        C178   1.490       .  S
O105        C108   1.268       .  A
O105       Cd110   2.498       .  S
C106        O115   1.265       .  A
C106        O111   1.262       .  A
C106        C168   1.484       .  S
O107        C113   1.262       .  A
O107       Cd110   2.506       .  S
C108        O116   1.267       .  A
C108        C191   1.489       .  S
C109        O114   1.268       .  A
C109        O112   1.265       .  A
C109        C238   1.492       .  S
Cd110       O117   2.521       .  S
Cd110       O116   2.491       .  S
Cd110       O115   2.479       .  S
Cd110       O111   2.478       .  S
Cd110       O114   2.499       .  S
Cd110       O112   2.493       .  S
C113        O117   1.266       .  A
C113        C757   1.495   1_545  S
O118        C121   1.269       .  A
O118       Cd123   2.513       .  S
C119        O128   1.263       .  A
C119        O124   1.267       .  A
C119        C171   1.487       .  S
O120        C126   1.266       .  A
O120       Cd123   2.512       .  S
C121        O129   1.265       .  A
C121        C388   1.488       .  S
C122        O127   1.268       .  A
C122        O125   1.264       .  A
C122        C341   1.492       .  S
Cd123       O130   2.489       .  S
Cd123       O129   2.475       .  S
Cd123       O128   2.462       .  S
Cd123       O124   2.494       .  S
Cd123       O127   2.512       .  S
Cd123       O125   2.486       .  S
C126        O130   1.263       .  A
C126        C181   1.493       .  S
O131        C134   1.264       .  A
O131       Cd136   2.480       .  S
C132        O141   1.264       .  A
C132        O137   1.269       .  A
C132        C218   1.499       .  S
O133        C139   1.268       .  A
O133       Cd136   2.514       .  S
C134        O142   1.268       .  A
C134        C158   1.488       .  S
C135        O140   1.268       .  A
C135        O138   1.263       .  A
C135       C1043   1.487   1_455  S
Cd136       O143   2.496       .  S
Cd136       O142   2.495       .  S
Cd136       O141   2.484       .  S
Cd136       O137   2.544       .  S
Cd136       O140   2.523       .  S
Cd136       O138   2.475       .  S
C139        O143   1.266       .  A
C139        C198   1.495       .  S
O144        C147   1.269       .  A
O144       Cd149   2.530       .  S
C145        O154   1.263       .  A
C145        O150   1.270       .  A
C145        C161   1.488       .  S
O146        C152   1.267       .  A
O146       Cd149   2.523       .  S
C147        O155   1.264       .  A
C147        C261   1.494       .  S
C148        O153   1.267       .  A
C148        O151   1.264       .  A
C148        C281   1.493       .  S
Cd149       O156   2.482       .  S
Cd149       O155   2.478       .  S
Cd149       O154   2.437       .  S
Cd149       O150   2.534       .  S
Cd149       O153   2.509       .  S
Cd149       O151   2.501       .  S
C152        O156   1.264       .  A
C152        C208   1.489       .  S
C157        C158   1.408       .  A
C157        C558   1.403       .  A
C157        H164   1.085       .  S
C158        C159   1.408   1_554  A
C159        C556   1.399       .  A
C159        F166   1.357       .  S
C160        C161   1.406   1_565  A
C160        C555   1.398       .  A
C160        H165   1.084       .  S
C161        C162   1.408   1_556  A
C162        C553   1.406   1_545  A
C162        F163   1.357       .  S
C167        C168   1.404       .  A
C167        C964   1.398       .  A
C167        H174   1.082       .  S
C168        C169   1.411       .  A
C169        C962   1.402       .  A
C169        F176   1.358       .  S
C170        C171   1.404       .  A
C170        C961   1.400       .  A
C170        H175   1.082       .  S
C171        C172   1.411       .  A
C172        C959   1.402   1_455  A
C172        F173   1.358   1_455  S
C177        C178   1.406       .  A
C177        C182   1.403       .  A
C177        H184   1.082       .  S
C178        C179   1.409       .  A
C179        C180   1.404       .  A
C179        F186   1.357       .  S
C180        C181   1.407       .  A
C180        H185   1.082       .  S
C181        C182   1.411       .  A
C182        F183   1.357       .  S
C187        C188   1.407       .  A
C187        C192   1.404       .  A
C187        H194   1.080       .  S
C188        C189   1.409       .  A
C189        C190   1.405       .  A
C189        F196   1.357       .  S
C190        C191   1.406       .  A
C190        H195   1.080       .  S
C191        C192   1.408       .  A
C192        F193   1.357       .  S
C197        C198   1.408       .  A
C197        C202   1.406       .  A
C197        H204   1.085       .  S
C198        C199   1.410       .  A
C199        C200   1.404       .  A
C199        F206   1.357       .  S
C200        C201   1.408       .  A
C200        H601   1.085       .  S
C201        C492   1.495       .  S
C201        C202   1.409       .  A
C202        F203   1.357       .  S
H205        C596   1.087   1_545  S
C207        C208   1.407       .  A
C207        C212   1.404   1_556  A
C207        H214   1.083       .  S
C208        C209   1.408       .  A
C209        C210   1.404   1_556  A
C209        F216   1.357       .  S
C210        C211   1.408       .  A
C210        H215   1.083       .  S
C211        C212   1.409       .  A
C212        F213   1.357       .  S
C217        C218   1.410       .  A
C217        C222   1.409       .  A
C217        H224   1.082       .  S
C218        C219   1.412       .  A
C219        C220   1.402       .  A
C219        F226   1.357       .  S
C220        C221   1.405       .  A
C220        H225   1.082       .  S
C221        C222   1.410       .  A
C222        F223   1.357       .  S
C227        C228   1.406       .  A
C227        C232   1.404       .  A
C227        H234   1.081       .  S
C228        C229   1.411       .  A
C229        C230   1.399       .  A
C229        F236   1.357       .  S
C230        C231   1.404       .  A
C230        H235   1.082       .  S
C231        C232   1.412       .  A
C232        F233   1.357       .  S
C237        C238   1.406       .  A
C237        C242   1.401       .  A
C237        H244   1.081       .  S
C238        C239   1.412       .  A
C239        C240   1.406       .  A
C239        F246   1.357       .  S
C240        C241   1.406       .  A
C240        H245   1.082       .  S
C241        C879   1.487       .  S
C241        C242   1.407       .  A
C242       F1035   1.357       .  S
F243       C1034   1.357       .  S
C247        C248   1.407   1_554  A
C247        C252   1.404       .  A
C247        H254   1.083       .  S
C248        C249   1.408       .  A
C249        C250   1.401   1_556  A
C249        F256   1.357       .  S
C250        C251   1.407       .  A
C250       H1047   1.083       .  S
C251        C927   1.488       .  S
C251        C252   1.408       .  A
C252        F253   1.357       .  S
H255       C1042   1.083   1_455  S
C257        C258   1.407       .  A
C257        C262   1.402       .  A
C257        H264   1.082       .  S
C258        C259   1.411       .  A
C259        C260   1.408       .  A
C259        F266   1.357       .  S
C260        C261   1.407       .  A
C260        H265   1.082       .  S
C261        C262   1.410       .  A
C262        F263   1.358       .  S
C267        C268   1.405       .  A
C267       C1064   1.398       .  A
C267        H274   1.082       .  S
C268       C1061   1.410       .  A
C269        C270   1.396       .  A
C269       C1060   1.411   1_455  A
C269        F276   1.358       .  S
C270        C271   1.403       .  A
C270        H275   1.082       .  S
C271        C272   1.410       .  A
C272       C1059   1.405   1_455  A
C272        F273   1.357       .  S
C277        C278   1.407   1_545  A
C277        C282   1.407       .  A
C277        H284   1.083       .  S
C278        C457   1.495       .  S
C278        C675   1.411       .  A
C279        C674   1.410       .  A
C279        C676   1.405       .  A
C279        F286   1.357       .  S
C280        C281   1.405       .  A
C280        C675   1.403   1_545  A
C280        H285   1.083       .  S
C281        C282   1.410       .  A
C282        F283   1.357       .  S
C287        C288   1.406       .  A
C287        C292   1.399       .  A
C287        H294   1.084       .  S
C288        C289   1.410       .  A
C289        C290   1.404       .  A
C289        F296   1.357       .  S
C290        C291   1.407       .  A
C290        H295   1.084       .  S
C291        C292   1.409       .  A
C292        F293   1.357       .  S
C297        C298   1.406       .  A
C297        C302   1.403       .  A
C297        H304   1.080       .  S
C298        C299   1.408       .  A
C299        C300   1.401       .  A
C299        F306   1.357       .  S
C300        C301   1.406       .  A
C300        H305   1.080       .  S
C301        C302   1.409       .  A
C302        F303   1.358       .  S
C307        C308   1.406       .  A
C307        C312   1.399       .  A
C307        H314   1.085       .  S
C308        C309   1.409       .  A
C309        C310   1.402       .  A
C309        F316   1.357       .  S
C310        C311   1.407       .  A
C310        H315   1.085       .  S
C311        C312   1.408       .  A
C312        F313   1.357       .  S
C317        C318   1.407       .  A
C317        C322   1.403       .  A
C317        H324   1.083       .  S
C318        C319   1.407       .  A
C319        C320   1.402   1_455  A
C319        F326   1.357       .  S
C320        C321   1.407       .  A
C320       H1117   1.083       .  S
C321        C827   1.488       .  S
C321        C322   1.408   1_655  A
C322        F323   1.357       .  S
H325       C1112   1.083       .  S
C327        C328   1.409   1_545  A
C327        C332   1.406       .  A
C327        H730   1.085   1_545  S
C328        C444   1.494       .  S
C328        C329   1.408   1_565  A
C329        C330   1.402       .  A
C329        F336   1.357       .  S
C330        C331   1.407       .  A
C330        H335   1.085       .  S
C331        C332   1.410       .  A
C332        F333   1.357       .  S
H334        C723   1.085       .  S
C337        C338   1.407       .  A
C337        C342   1.405       .  A
C337       H1136   1.082       .  S
C338        C814   1.494   1_455  S
C338        C339   1.411       .  A
C339        C340   1.404       .  A
C339        F346   1.357   1_455  S
C340        C341   1.406       .  A
C340        H345   1.082       .  S
C341        C342   1.410       .  A
C342        F343   1.357       .  S
H344       C1129   1.082       .  S
C347        C348   1.408       .  A
C347        C352   1.405       .  A
C347        H354   1.081       .  S
C348        C349   1.410       .  A
C349        C350   1.400       .  A
C349        F356   1.358       .  S
C350        C351   1.404       .  A
C350        H355   1.082       .  S
C351        C352   1.407       .  A
C352        F353   1.357       .  S
C357        C358   1.406       .  A
C357        C362   1.402       .  A
C357        H364   1.083       .  S
C358        C359   1.410       .  A
C359        C360   1.404       .  A
C359        F366   1.357       .  S
C360        C361   1.406       .  A
C360        H761   1.083       .  S
C361        C509   1.490       .  S
C361        C362   1.409       .  A
C362        F363   1.357       .  S
H365        C756   1.084       .  S
C367        C368   1.406       .  A
C367        C768   1.399       .  A
C367        H374   1.085       .  S
C368        C369   1.409       .  A
C369        C766   1.402       .  A
C369        F376   1.357       .  S
C370        C371   1.406   1_565  A
C370        C765   1.396       .  A
C370        H375   1.085       .  S
C371        C372   1.407       .  A
C372        C763   1.402   1_545  A
C372        F373   1.357       .  S
C377        C378   1.404       .  A
C377        C382   1.398       .  A
C377        H384   1.081       .  S
C378        C379   1.410       .  A
C379        C380   1.406       .  A
C379        F386   1.357       .  S
C380        C381   1.406       .  A
C380        H385   1.081       .  S
C381        C382   1.408       .  A
C382        F383   1.358       .  S
C387        C388   1.406       .  A
C387        C392   1.406       .  A
C387        H394   1.082       .  S
C388        C389   1.408       .  A
C389        C390   1.401       .  A
C389        F396   1.358       .  S
C390        C391   1.407       .  A
C390        H395   1.082       .  S
C391        C392   1.411       .  A
C392        F393   1.357       .  S
O397        C400   1.267       .  A
O397       Cd402   2.523       .  S
C398        O407   1.264       .  A
C398        O403   1.267       .  A
C398        C764   1.484       .  S
O399        C405   1.265       .  A
O399       Cd402   2.501       .  S
C400        O408   1.264       .  A
C400        C787   1.488       .  S
C401        O406   1.269       .  A
C401        O404   1.264       .  A
C401        C754   1.497       .  S
Cd402       O409   2.525       .  S
Cd402       O408   2.468       .  S
Cd402       O407   2.470       .  S
Cd402       O403   2.486       .  S
Cd402       O406   2.531       .  S
Cd402       O404   2.481       .  S
C405        O409   1.266       .  A
C405        C777   1.497       .  S
O410        C413   1.268       .  A
O410       Cd415   2.530       .  S
C411        O420   1.267       .  A
C411        O416   1.265       .  A
C411        C767   1.484       .  S
O412        C418   1.262       .  A
O412       Cd415   2.484       .  S
C413        O421   1.266       .  A
C413        C747   1.495       .  S
C414        O419   1.268       .  A
C414        O417   1.264       .  A
C414        C727   1.493       .  S
Cd415       O422   2.525       .  S
Cd415       O421   2.472       .  S
Cd415       O420   2.482       .  S
Cd415       O416   2.472       .  S
Cd415       O419   2.524       .  S
Cd415       O417   2.478       .  S
C418        O422   1.267       .  A
C418       C1526   1.493       .  S
O423        C426   1.267       .  A
O423       Cd428   2.530       .  S
C424        O433   1.264       .  A
C424        O429   1.267       .  A
C424        C704   1.487       .  S
O425        C431   1.267       .  A
O425       Cd428   2.541       .  S
C426        O434   1.266       .  A
C426        C744   1.489       .  S
C427        O432   1.266       .  A
C427        O430   1.264       .  A
C427        C774   1.495       .  S
Cd428       O435   2.478       .  S
Cd428       O434   2.481       .  S
Cd428       O433   2.467       .  S
Cd428       O429   2.489       .  S
Cd428       O432   2.512       .  S
Cd428       O430   2.503       .  S
C431        O435   1.263       .  A
C431       C1509   1.495       .  S
O436        C439   1.268       .  A
O436       Cd441   2.532       .  S
C437        O446   1.269       .  A
C437        O442   1.262       .  A
C437        C707   1.488       .  S
O438        C444   1.262       .  A
O438       Cd441   2.506       .  S
C439        O447   1.266       .  A
C439        C694   1.498       .  S
C440        O445   1.270       .  A
C440        O443   1.266       .  A
C440        C684   1.493       .  S
Cd441       O448   2.512       .  S
Cd441       O447   2.505       .  S
Cd441       O446   2.522       .  S
Cd441       O442   2.457       .  S
Cd441       O445   2.524       .  S
Cd441       O443   2.459       .  S
C444        O448   1.265       .  A
O449        C452   1.267       .  A
O449       Cd454   2.510       .  S
C450        O459   1.263       .  A
C450        O455   1.267       .  A
C450        C667   1.489       .  S
O451        C457   1.267       .  A
O451       Cd454   2.542       .  S
C452        O460   1.266       .  A
C452        C697   1.493       .  S
C453        O458   1.269       .  A
C453        O456   1.265       .  A
C453        C714   1.491       .  S
Cd454       O461   2.480       .  S
Cd454       O460   2.504       .  S
Cd454       O459   2.481       .  S
Cd454       O455   2.499       .  S
Cd454       O458   2.507       .  S
Cd454       O456   2.483       .  S
C457        O461   1.261       .  A
O462        C465   1.265       .  A
O462       Cd467   2.516       .  S
C463        O472   1.266       .  A
C463        O468   1.270       .  A
C463        C654   1.494       .  S
O464        C470   1.269       .  A
O464       Cd467   2.514       .  S
C465        O473   1.261       .  A
C465        C664   1.488       .  S
C466        O471   1.268       .  A
C466        O469   1.262       .  A
C466        C687   1.491       .  S
Cd467       O474   2.489       .  S
Cd467       O473   2.481       .  S
Cd467       O472   2.460       .  S
Cd467       O468   2.534       .  S
Cd467       O471   2.536       .  S
Cd467       O469   2.461       .  S
C470        O474   1.266       .  A
C470        C644   1.495       .  S
O475        C478   1.267       .  A
O475       Cd480   2.523       .  S
C476        O485   1.265       .  A
C476        O481   1.268       .  A
C476        C624   1.484       .  S
O477        C483   1.262       .  A
O477       Cd480   2.451       .  S
C478        O486   1.265       .  A
C478        C617   1.493       .  S
C479        O484   1.268       .  A
C479        O482   1.265       .  A
C479        C607   1.496       .  S
Cd480       O487   2.526       .  S
Cd480       O486   2.484       .  S
Cd480       O485   2.455       .  S
Cd480       O481   2.503       .  S
Cd480       O484   2.535       .  S
Cd480       O482   2.478       .  S
C483        O487   1.270       .  A
C483       C1429   1.489       .  S
O488        C491   1.267       .  A
O488       Cd493   2.478       .  S
C489        O498   1.267       .  A
C489        O494   1.266       .  A
C489        C584   1.492       .  S
O490        C496   1.265       .  A
O490       Cd493   2.486       .  S
C491        O499   1.264       .  A
C491        C627   1.485       .  S
C492        O497   1.263       .  A
C492        O495   1.268       .  A
Cd493       O500   2.506       .  S
Cd493       O499   2.471       .  S
Cd493       O498   2.513       .  S
Cd493       O494   2.485       .  S
Cd493       O497   2.486       .  S
Cd493       O495   2.536       .  S
C496        O500   1.264       .  A
C496        C574   1.489       .  S
O501        C504   1.269       .  A
O501       Cd506   2.529       .  S
C502        O511   1.269       .  A
C502        O507   1.263       .  A
C502        C564   1.488       .  S
O503        C509   1.263       .  A
O503       Cd506   2.491       .  S
C504        O512   1.265       .  A
C504        C587   1.495       .  S
C505        O510   1.267       .  A
C505        O508   1.265       .  A
C505        C634   1.489       .  S
Cd506       O513   2.520       .  S
Cd506       O512   2.472       .  S
Cd506       O511   2.505       .  S
Cd506       O507   2.454       .  S
Cd506       O510   2.499       .  S
Cd506       O508   2.496       .  S
C509        O513   1.266       .  A
O514        C517   1.267       .  A
O514       Cd519   2.519       .  S
C515        O524   1.263       .  A
C515        O520   1.267       .  A
C515        C567   1.485       .  S
O516        C522   1.269       .  A
O516       Cd519   2.544       .  S
C517        O525   1.265       .  A
C517        C784   1.494       .  S
C518        O523   1.266       .  A
C518        O521   1.266       .  A
C518        C737   1.492       .  S
Cd519       O526   2.450       .  S
Cd519       O525   2.486       .  S
Cd519       O524   2.461       .  S
Cd519       O520   2.490       .  S
Cd519       O523   2.492       .  S
Cd519       O521   2.503       .  S
C522        O526   1.262       .  A
C522        C577   1.489       .  S
O527        C530   1.264       .  A
O527       Cd532   2.490       .  S
C528        O537   1.265       .  A
C528        O533   1.269       .  A
C528        C614   1.497       .  S
O529        C535   1.269       .  A
O529       Cd532   2.535       .  S
C530        O538   1.267       .  A
C530        C554   1.490       .  S
C531        O536   1.265       .  A
C531        O534   1.265       .  A
C531       C1439   1.496       .  S
Cd532       O539   2.465       .  S
Cd532       O538   2.493       .  S
Cd532       O537   2.480       .  S
Cd532       O533   2.526       .  S
Cd532       O536   2.510       .  S
Cd532       O534   2.509       .  S
C535        O539   1.263       .  A
C535        C594   1.494       .  S
O540        C543   1.267       .  A
O540       Cd545   2.511       .  S
C541        O550   1.265       .  A
C541        O546   1.267       .  A
C541        C557   1.485       .  S
O542        C548   1.265       .  A
O542       Cd545   2.492       .  S
C543        O551   1.265       .  A
C543        C657   1.487       .  S
C544        O549   1.269       .  A
C544        O547   1.263       .  A
C544        C677   1.493       .  S
Cd545       O552   2.514       .  S
Cd545       O551   2.467       .  S
Cd545       O550   2.451       .  S
Cd545       O546   2.497       .  S
Cd545       O549   2.529       .  S
Cd545       O547   2.465       .  S
C548        O552   1.264       .  A
C548        C604   1.494       .  S
C553        C554   1.410       .  A
C553        H560   1.084   1_565  S
C554        C555   1.408   1_554  A
C555        F562   1.357       .  S
C556        C557   1.405       .  A
C556        H561   1.084       .  S
C557        C558   1.408   1_556  A
C558        F559   1.358       .  S
C563        C564   1.405       .  A
C563       C1360   1.402       .  A
C563        H570   1.082       .  S
C564        C565   1.411       .  A
C565       C1358   1.399       .  A
C565        F572   1.358       .  S
C566       C1357   1.399       .  A
C566        C567   1.405       .  A
C566        H571   1.082       .  S
C567        C568   1.411       .  A
C568       C1355   1.401   1_455  A
C568        F569   1.357   1_455  S
C573        C574   1.404       .  A
C573        C578   1.398       .  A
C573        H580   1.082       .  S
C574        C575   1.411       .  A
C575        C576   1.408       .  A
C575        F582   1.357       .  S
C576        C577   1.407       .  A
C576        H581   1.082       .  S
C577        C578   1.409       .  A
C578        F579   1.358       .  S
C583        C584   1.408       .  A
C583        C588   1.407       .  A
C583        H590   1.081       .  S
C584        C585   1.408       .  A
C585        C586   1.401       .  A
C585        F592   1.358       .  S
C586        C587   1.408       .  A
C586        H591   1.081       .  S
C587        C588   1.410       .  A
C588        F589   1.357       .  S
C593        C594   1.407       .  A
C593        C598   1.401       .  A
C593        H600   1.087       .  S
C594        C595   1.410       .  A
C595        C596   1.405       .  A
C595        F602   1.357       .  S
C596        C597   1.408       .  A
C597        C598   1.409       .  A
C598        F599   1.357       .  S
C603        C604   1.409       .  A
C603        C608   1.408   1_556  A
C603        H610   1.083       .  S
C604        C605   1.409       .  A
C605        C606   1.401   1_556  A
C605        F612   1.357       .  S
C606        C607   1.407       .  A
C606        H611   1.082       .  S
C607        C608   1.411       .  A
C608        F609   1.357       .  S
C613        C614   1.408       .  A
C613        C618   1.407       .  A
C613        H620   1.082       .  S
C614        C615   1.411       .  A
C615        C616   1.402       .  A
C615        F622   1.357       .  S
C616        C617   1.406       .  A
C616        H621   1.082       .  S
C617        C618   1.410       .  A
C618        F619   1.357       .  S
C623        C624   1.406       .  A
C623        C628   1.403       .  A
C623        H630   1.081       .  S
C624        C625   1.407       .  A
C625        C626   1.398       .  A
C625        F632   1.357       .  S
C626        C627   1.404       .  A
C626        H631   1.082       .  S
C627        C628   1.411       .  A
C628        F629   1.358       .  S
C633        C634   1.405       .  A
C633        C638   1.401       .  A
C633        H640   1.082       .  S
C634        C635   1.410       .  A
C635        C636   1.406       .  A
C635        F642   1.357       .  S
C636        C637   1.406       .  A
C636        H641   1.082       .  S
C637       C1275   1.487       .  S
C637        C638   1.408       .  A
C638       F1431   1.358       .  S
F639       C1430   1.358       .  S
C643        C644   1.408   1_554  A
C643        C648   1.404       .  A
C643        H650   1.083       .  S
C644        C645   1.410       .  A
C645        C646   1.406   1_556  A
C645        F652   1.357       .  S
C646        C647   1.408       .  A
C646       H1443   1.083       .  S
C647       C1323   1.492       .  S
C647        C648   1.408       .  A
C648        F649   1.357       .  S
H651       C1438   1.083   1_455  S
C653        C654   1.407       .  A
C653        C658   1.399       .  A
C653        H660   1.082       .  S
C654        C655   1.411       .  A
C655        C656   1.408       .  A
C655        F662   1.357       .  S
C656        C657   1.407       .  A
C656        H661   1.083       .  S
C657        C658   1.406       .  A
C658        F659   1.358       .  S
C663        C664   1.405       .  A
C663       C1460   1.402       .  A
C663        H670   1.082       .  S
C664       C1457   1.410       .  A
C665       C1456   1.410   1_455  A
C665        C666   1.401       .  A
C665        F672   1.357       .  S
C666        C667   1.405       .  A
C666        H671   1.082       .  S
C667        C668   1.411   1_455  A
C668       C1455   1.402       .  A
C668        F669   1.357       .  S
C673        C674   1.405       .  A
C673        C678   1.401       .  A
C673        H680   1.083       .  S
C675        F682   1.357       .  S
C676        C677   1.407       .  A
C676        H681   1.083       .  S
C677        C678   1.412       .  A
C678        F679   1.358       .  S
C683        C684   1.406       .  A
C683        C688   1.399       .  A
C683        H690   1.084       .  S
C684        C685   1.411       .  A
C685        C686   1.408       .  A
C685        F692   1.357       .  S
C686        C687   1.408       .  A
C686        H691   1.083       .  S
C687        C688   1.409       .  A
C688        F689   1.358       .  S
C693        C694   1.408       .  A
C693        C698   1.407       .  A
C693        H700   1.080       .  S
C694        C695   1.411       .  A
C695        C696   1.406       .  A
C695        F702   1.357       .  S
C696        C697   1.406       .  A
C696        H701   1.080       .  S
C697        C698   1.410       .  A
C698        F699   1.357       .  S
C703        C704   1.408       .  A
C703        C708   1.402       .  A
C703        H710   1.084       .  S
C704        C705   1.408       .  A
C705        C706   1.400       .  A
C705        F712   1.358       .  S
C706        C707   1.408       .  A
C706        H711   1.085       .  S
C707        C708   1.407       .  A
C708        F709   1.357       .  S
C713        C714   1.408       .  A
C713        C718   1.406       .  A
C713        H720   1.083       .  S
C714        C715   1.408       .  A
C715        C716   1.402   1_455  A
C715        F722   1.357       .  S
C716        C717   1.408   1_655  A
C716       H1513   1.083       .  S
C717       C1223   1.493   1_455  S
C717        C718   1.410       .  A
C718        F719   1.357       .  S
H721       C1508   1.082       .  S
C723        C724   1.407       .  A
C723        C728   1.405       .  A
C724        C725   1.408       .  A
C725        C726   1.402       .  A
C725        F732   1.357       .  S
C726        C727   1.407       .  A
C726        H731   1.085       .  S
C727        C728   1.410       .  A
C728        F729   1.357       .  S
C733        C734   1.406       .  A
C733        C738   1.408       .  A
C733       H1532   1.081       .  S
C734       C1210   1.491   1_455  S
C734        C735   1.410   1_455  A
C735        C736   1.401   1_655  A
C735        F742   1.358       .  S
C736        C737   1.406       .  A
C736        H741   1.081       .  S
C737        C738   1.410       .  A
C738        F739   1.357       .  S
H740       C1525   1.081       .  S
C743        C744   1.408       .  A
C743        C748   1.411       .  A
C743        H750   1.082       .  S
C744        C745   1.405       .  A
C745        C746   1.399       .  A
C745        F752   1.357       .  S
C746        C747   1.406       .  A
C746        H751   1.082       .  S
C747        C748   1.413       .  A
C748        F749   1.358       .  S
C753        C754   1.407       .  A
C753        C758   1.406       .  A
C753        H760   1.083       .  S
C754        C755   1.412       .  A
C755        C756   1.403       .  A
C755        F762   1.357       .  S
C756        C757   1.406       .  A
C757        C758   1.411       .  A
C758        F759   1.357   1_565  S
C763        C764   1.408       .  A
C763        H770   1.085   1_565  S
C764        C765   1.407       .  A
C765        F772   1.357       .  S
C766        C767   1.406       .  A
C766        H771   1.085       .  S
C767        C768   1.407       .  A
C768        F769   1.357       .  S
C773        C774   1.407       .  A
C773        C778   1.404       .  A
C773        H780   1.081       .  S
C774        C775   1.411       .  A
C775        C776   1.407       .  A
C775        F782   1.358       .  S
C776        C777   1.409       .  A
C776        H781   1.080       .  S
C777        C778   1.410       .  A
C778        F779   1.357       .  S
C783        C784   1.410       .  A
C783        C788   1.407       .  A
C783        H790   1.082       .  S
C784        C785   1.410       .  A
C785        C786   1.400       .  A
C785        F792   1.357       .  S
C786        C787   1.404       .  A
C786        H791   1.083       .  S
C787        C788   1.408       .  A
C788        F789   1.357       .  S
O793        C796   1.268       .  A
O793       Cd798   2.523       .  S
C794        O803   1.264       .  A
C794        O799   1.268       .  A
C794       C1160   1.484       .  S
O795        C801   1.262       .  A
O795       Cd798   2.464       .  S
C796        O804   1.265       .  A
C796       C1183   1.494       .  S
C797        O802   1.267       .  A
C797        O800   1.264       .  A
C797       C1150   1.488       .  S
Cd798       O805   2.533       .  S
Cd798       O804   2.482       .  S
Cd798       O803   2.464       .  S
Cd798       O799   2.482       .  S
Cd798       O802   2.501       .  S
Cd798       O800   2.476       .  S
C801        O805   1.268       .  A
C801       C1173   1.488       .  S
O806        C809   1.268       .  A
O806       Cd811   2.507       .  S
C807        O816   1.268       .  A
C807        O812   1.263       .  A
C807       C1163   1.484       .  S
O808        C814   1.263       .  A
O808       Cd811   2.491       .  S
C809        O817   1.265       .  A
C809       C1143   1.487       .  S
C810        O815   1.269       .  A
C810        O813   1.263       .  A
C810       C1123   1.491       .  S
Cd811       O818   2.518       .  S
Cd811       O817   2.465       .  S
Cd811       O816   2.483       .  S
Cd811       O812   2.453       .  S
Cd811       O815   2.524       .  S
Cd811       O813   2.453       .  S
C814        O818   1.266       .  A
O819        C822   1.267       .  A
O819       Cd824   2.510       .  S
C820        O829   1.264       .  A
C820        O825   1.267       .  A
C820       C1100   1.482       .  S
O821        C827   1.267       .  A
O821       Cd824   2.513       .  S
C822        O830   1.264       .  A
C822       C1140   1.488       .  S
C823        O828   1.267       .  A
C823        O826   1.264       .  A
C823       C1170   1.489       .  S
Cd824       O831   2.471       .  S
Cd824       O830   2.464       .  S
Cd824       O829   2.460       .  S
Cd824       O825   2.472       .  S
Cd824       O828   2.496       .  S
Cd824       O826   2.481       .  S
C827        O831   1.263       .  A
O832        C835   1.267       .  A
O832       Cd837   2.491       .  S
C833        O842   1.264       .  A
C833        O838   1.263       .  A
C833       C1103   1.484       .  S
O834        C840   1.264       .  A
O834       Cd837   2.495       .  S
C835        O843   1.266       .  A
C835       C1090   1.484       .  S
C836        O841   1.269       .  A
C836        O839   1.265       .  A
C836       C1080   1.494       .  S
Cd837       O844   2.524       .  S
Cd837       O843   2.483       .  S
Cd837       O842   2.498       .  S
Cd837       O838   2.471       .  S
Cd837       O841   2.513       .  S
Cd837       O839   2.486       .  S
C840        O844   1.266       .  A
C840       C1516   1.496       .  S
O845        C848   1.268       .  A
O845       Cd850   2.506       .  S
C846        O855   1.267       .  A
C846        O851   1.261       .  A
C846       C1063   1.484       .  S
O847        C853   1.266       .  A
O847       Cd850   2.509       .  S
C848        O856   1.266       .  A
C848       C1093   1.489       .  S
C849        O854   1.270       .  A
C849        O852   1.265       .  A
C849       C1110   1.493       .  S
Cd850       O857   2.510       .  S
Cd850       O856   2.483       .  S
Cd850       O855   2.500       .  S
Cd850       O851   2.445       .  S
Cd850       O854   2.525       .  S
Cd850       O852   2.464       .  S
C853        O857   1.263       .  A
C853       C1466   1.494       .  S
O858        C861   1.270       .  A
O858       Cd863   2.524       .  S
C859        O868   1.265       .  A
C859        O864   1.268       .  A
C859       C1050   1.495       .  S
O860        C866   1.268       .  A
O860       Cd863   2.498       .  S
C861        O869   1.262       .  A
C861       C1060   1.488       .  S
C862        O867   1.262       .  A
C862        O865   1.267       .  A
C862       C1083   1.487       .  S
Cd863       O870   2.493       .  S
Cd863       O869   2.429       .  S
Cd863       O868   2.464       .  S
Cd863       O864   2.539       .  S
Cd863       O867   2.476       .  S
Cd863       O865   2.535       .  S
C866        O870   1.266       .  A
C866       C1040   1.491       .  S
O871        C874   1.267       .  A
O871       Cd876   2.512       .  S
C872        O881   1.263       .  A
C872        O877   1.269       .  A
C872       C1020   1.482       .  S
O873        C879   1.264       .  A
O873       Cd876   2.471       .  S
C874        O882   1.264       .  A
C874       C1013   1.489       .  S
C875        O880   1.268       .  A
C875        O878   1.266       .  A
C875       C1003   1.491       .  S
Cd876       O883   2.520       .  S
Cd876       O882   2.458       .  S
Cd876       O881   2.449       .  S
Cd876       O877   2.497       .  S
Cd876       O880   2.496       .  S
Cd876       O878   2.474       .  S
C879        O883   1.267       .  A
O884        C887   1.264       .  A
O884       Cd889   2.492       .  S
C885        O894   1.267       .  A
C885        O890   1.268       .  A
C885        C980   1.490       .  S
O886        C892   1.267       .  A
O886       Cd889   2.508       .  S
C887        O895   1.263       .  A
C887       C1023   1.485       .  S
C888        O893   1.264       .  A
C888        O891   1.265       .  A
C888       C1389   1.490   1_545  S
Cd889       O896   2.482       .  S
Cd889       O895   2.469       .  S
Cd889       O894   2.482       .  S
Cd889       O890   2.491       .  S
Cd889       O893   2.486       .  S
Cd889       O891   2.501       .  S
C892        O896   1.265       .  A
C892        C970   1.490       .  S
O897        C900   1.267       .  A
O897       Cd902   2.510       .  S
C898        O907   1.267       .  A
C898        O903   1.261       .  A
C898        C960   1.488       .  S
O899        C905   1.262       .  A
O899       Cd902   2.492       .  S
C900        O908   1.264       .  A
C900        C983   1.488       .  S
C901        O906   1.271       .  A
C901        O904   1.265       .  A
C901       C1030   1.492       .  S
Cd902       O909   2.517       .  S
Cd902       O908   2.494       .  S
Cd902       O907   2.516       .  S
Cd902       O903   2.458       .  S
Cd902       O906   2.521       .  S
Cd902       O904   2.455       .  S
C905        O909   1.266       .  A
C905       C1549   1.490   1_545  S
O910        C913   1.269       .  A
O910       Cd915   2.523       .  S
C911        O920   1.263       .  A
C911        O916   1.270       .  A
C911        C963   1.483       .  S
O912        C918   1.267       .  A
O912       Cd915   2.520       .  S
C913        O921   1.265       .  A
C913       C1180   1.494       .  S
C914        O919   1.268       .  A
C914        O917   1.265       .  A
C914       C1133   1.492       .  S
Cd915       O922   2.481       .  S
Cd915       O921   2.477       .  S
Cd915       O920   2.436       .  S
Cd915       O916   2.504       .  S
Cd915       O919   2.508       .  S
Cd915       O917   2.489       .  S
C918        O922   1.262       .  A
C918        C973   1.490       .  S
O923        C926   1.264       .  A
O923       Cd928   2.453       .  S
C924        O933   1.264       .  A
C924        O929   1.267       .  A
C924       C1010   1.489       .  S
O925        C931   1.267       .  A
O925       Cd928   2.499       .  S
C926        O934   1.268       .  A
C926        C950   1.486       .  S
C927        O932   1.268       .  A
C927        O930   1.263       .  A
Cd928       O935   2.467       .  S
Cd928       O934   2.497       .  S
Cd928       O933   2.470       .  S
Cd928       O929   2.514       .  S
Cd928       O932   2.520       .  S
Cd928       O930   2.462       .  S
C931        O935   1.264       .  A
C931        C990   1.489       .  S
O936        C939   1.269       .  A
O936       Cd941   2.532       .  S
C937        O946   1.264       .  A
C937        O942   1.269       .  A
C937        C953   1.487       .  S
O938        C944   1.265       .  A
O938       Cd941   2.520       .  S
C939        O947   1.265       .  A
C939       C1053   1.490       .  S
C940        O945   1.268       .  A
C940        O943   1.263       .  A
C940       C1073   1.493       .  S
Cd941       O948   2.507       .  S
Cd941       O947   2.455       .  S
Cd941       O946   2.460       .  S
Cd941       O942   2.504       .  S
Cd941       O945   2.522       .  S
Cd941       O943   2.483       .  S
C944        O948   1.263       .  A
C944       C1000   1.493       .  S
C949        C950   1.407       .  A
C949       C1350   1.400       .  A
C949        H956   1.085       .  S
C950        C951   1.408   1_554  A
C951       C1348   1.401       .  A
C951        F958   1.357       .  S
C952       C1347   1.401       .  A
C952        C953   1.407   1_565  A
C952        H957   1.084       .  S
C953        C954   1.407   1_556  A
C954       C1345   1.402   1_545  A
C954        F955   1.357       .  S
C959        C960   1.405       .  A
C959        H966   1.082       .  S
C960        C961   1.411   1_655  A
C961        F968   1.357       .  S
C962        C963   1.405       .  A
C962        H967   1.082       .  S
C963        C964   1.409       .  A
C964        F965   1.358       .  S
C969        C970   1.406       .  A
C969        C974   1.403       .  A
C969        H976   1.082       .  S
C970        C971   1.410       .  A
C971        C972   1.403       .  A
C971        F978   1.357       .  S
C972        C973   1.405       .  A
C972        H977   1.082       .  S
C973        C974   1.411       .  A
C974        F975   1.358       .  S
C979        C980   1.407       .  A
C979        C984   1.403       .  A
C979        H986   1.079       .  S
C980        C981   1.410       .  A
C981        C982   1.404       .  A
C981        F988   1.358       .  S
C982        C983   1.407       .  A
C982        H987   1.080       .  S
C983        C984   1.407       .  A
C984        F985   1.357       .  S
C989        C990   1.407       .  A
C989        C994   1.401       .  A
C989        H996   1.086       .  S
C990        C991   1.409       .  A
C991        C992   1.403       .  A
C991        F998   1.357       .  S
C992        C993   1.407       .  A
C992       H1393   1.085       .  S
C993       C1284   1.489       .  S
C993        C994   1.408       .  A
C994        F995   1.357       .  S
H997       C1388   1.087   1_545  S
C999       C1000   1.408       .  A
C999       C1004   1.405   1_556  A
C999       H1006   1.083       .  S
C1000      C1001   1.409       .  A
C1001      C1002   1.403   1_556  A
C1001      F1008   1.357       .  S
C1002      C1003   1.407       .  A
C1002      H1007   1.082       .  S
C1003      C1004   1.410       .  A
C1004      F1005   1.358       .  S
C1009      C1010   1.407       .  A
C1009      C1014   1.405       .  A
C1009      H1016   1.083       .  S
C1010      C1011   1.408       .  A
C1011      C1012   1.398       .  A
C1011      F1018   1.357       .  S
C1012      C1013   1.406       .  A
C1012      H1017   1.082       .  S
C1013      C1014   1.410       .  A
C1014      F1015   1.357       .  S
C1019      C1020   1.403       .  A
C1019      C1024   1.399       .  A
C1019      H1026   1.081       .  S
C1020      C1021   1.409       .  A
C1021      C1022   1.400       .  A
C1021      F1028   1.358       .  S
C1022      C1023   1.406       .  A
C1022      H1027   1.082       .  S
C1023      C1024   1.410       .  A
C1024      F1025   1.357       .  S
C1029      C1030   1.406       .  A
C1029      C1034   1.406   1_655  A
C1029      H1036   1.081       .  S
C1030      C1031   1.410       .  A
C1031      C1032   1.402       .  A
C1031      F1038   1.358       .  S
C1032      C1033   1.406   1_655  A
C1032      H1037   1.082       .  S
C1033      C1034   1.412       .  A
C1039      C1040   1.408   1_554  A
C1039      C1044   1.405       .  A
C1039      H1046   1.083       .  S
C1040      C1041   1.410       .  A
C1041      C1042   1.403   1_556  A
C1041      F1048   1.357       .  S
C1042      C1043   1.405       .  A
C1043      C1044   1.407       .  A
C1044      F1045   1.357       .  S
C1049      C1050   1.406       .  A
C1049      C1054   1.398       .  A
C1049      H1056   1.082       .  S
C1050      C1051   1.412       .  A
C1051      C1052   1.410       .  A
C1051      F1058   1.357       .  S
C1052      C1053   1.408       .  A
C1052      H1057   1.082       .  S
C1053      C1054   1.407       .  A
C1054      F1055   1.358       .  S
C1059      C1060   1.407       .  A
C1059      H1066   1.082       .  S
C1061      C1062   1.402       .  A
C1061      F1068   1.357       .  S
C1062      C1063   1.405       .  A
C1062      H1067   1.082       .  S
C1063      C1064   1.410       .  A
C1064      F1065   1.358       .  S
C1069      C1070   1.406       .  A
C1069      C1074   1.405       .  A
C1069      H1076   1.083       .  S
C1070      C1249   1.494   1_545  S
C1070      C1467   1.411       .  A
C1071      C1466   1.412       .  A
C1071      C1468   1.407       .  A
C1071      F1078   1.357       .  S
C1072      C1467   1.403       .  A
C1072      C1073   1.405       .  A
C1072      H1077   1.083       .  S
C1073      C1074   1.412       .  A
C1074      F1075   1.357       .  S
C1079      C1080   1.410       .  A
C1079      C1084   1.406       .  A
C1079      H1086   1.083       .  S
C1080      C1081   1.409       .  A
C1081      C1082   1.403       .  A
C1081      F1088   1.357       .  S
C1082      C1083   1.405       .  A
C1082      H1087   1.083       .  S
C1083      C1084   1.406       .  A
C1084      F1085   1.357       .  S
C1089      C1090   1.404       .  A
C1089      C1094   1.402       .  A
C1089      H1096   1.080       .  S
C1090      C1091   1.407       .  A
C1091      C1092   1.404       .  A
C1091      F1098   1.358       .  S
C1092      C1093   1.407       .  A
C1092      H1097   1.080       .  S
C1093      C1094   1.409       .  A
C1094      F1095   1.357       .  S
C1099      C1100   1.407       .  A
C1099      C1104   1.401       .  A
C1099      H1106   1.085       .  S
C1100      C1101   1.407       .  A
C1101      C1102   1.398       .  A
C1101      F1108   1.357       .  S
C1102      C1103   1.406       .  A
C1102      H1107   1.085       .  S
C1103      C1104   1.408       .  A
C1104      F1105   1.357       .  S
C1109      C1110   1.408       .  A
C1109      C1114   1.401       .  A
C1109      H1116   1.083       .  S
C1110      C1111   1.410       .  A
C1111      C1112   1.406       .  A
C1111      F1118   1.357       .  S
C1112      C1113   1.408       .  A
C1113      C1114   1.408       .  A
C1114      F1115   1.358       .  S
C1119      C1120   1.408   1_545  A
C1119      C1124   1.405       .  A
C1119      H1522   1.085   1_545  S
C1120      C1236   1.488       .  S
C1120      C1121   1.408   1_565  A
C1121      C1122   1.399       .  A
C1121      F1128   1.358       .  S
C1122      C1123   1.407       .  A
C1122      H1127   1.085       .  S
C1123      C1124   1.409       .  A
C1124      F1125   1.357       .  S
H1126      C1515   1.085       .  S
C1129      C1130   1.407       .  A
C1129      C1134   1.404       .  A
C1130      C1131   1.411       .  A
C1131      C1132   1.404       .  A
C1131      F1138   1.357       .  S
C1132      C1133   1.407       .  A
C1132      H1137   1.082       .  S
C1133      C1134   1.409       .  A
C1134      F1135   1.357       .  S
C1139      C1140   1.407       .  A
C1139      C1144   1.405       .  A
C1139      H1146   1.082       .  S
C1140      C1141   1.409       .  A
C1141      C1142   1.399       .  A
C1141      F1148   1.358       .  S
C1142      C1143   1.405       .  A
C1142      H1147   1.082       .  S
C1143      C1144   1.409       .  A
C1144      F1145   1.357       .  S
C1149      C1150   1.406       .  A
C1149      C1154   1.402       .  A
C1149      H1156   1.083       .  S
C1150      C1151   1.410       .  A
C1151      C1152   1.403       .  A
C1151      F1158   1.357       .  S
C1152      C1153   1.405       .  A
C1152      H1553   1.083       .  S
C1153      C1301   1.486       .  S
C1153      C1154   1.409       .  A
C1154      F1155   1.358       .  S
H1157      C1548   1.084       .  S
C1159      C1160   1.408       .  A
C1159      C1560   1.402       .  A
C1159      H1166   1.085       .  S
C1160      C1161   1.407       .  A
C1161      C1558   1.397       .  A
C1161      F1168   1.357       .  S
C1162      C1557   1.401       .  A
C1162      C1163   1.408   1_565  A
C1162      H1167   1.085       .  S
C1163      C1164   1.407       .  A
C1164      C1555   1.399       .  A
C1164      F1165   1.358       .  S
C1169      C1170   1.405       .  A
C1169      C1174   1.401       .  A
C1169      H1176   1.081       .  S
C1170      C1171   1.411       .  A
C1171      C1172   1.405       .  A
C1171      F1178   1.357       .  S
C1172      C1173   1.406       .  A
C1172      H1177   1.081       .  S
C1173      C1174   1.409       .  A
C1174      F1175   1.357       .  S
C1179      C1180   1.408       .  A
C1179      C1184   1.407       .  A
C1179      H1186   1.082       .  S
C1180      C1181   1.410       .  A
C1181      C1182   1.402       .  A
C1181      F1188   1.358       .  S
C1182      C1183   1.406       .  A
C1182      H1187   1.083       .  S
C1183      C1184   1.410       .  A
C1184      F1185   1.357       .  S
O1189      C1192   1.268       .  A
O1189     Cd1194   2.546       .  S
C1190      O1199   1.263       .  A
C1190      O1195   1.269       .  A
C1190      C1556   1.486       .  S
O1191      C1197   1.263       .  A
O1191     Cd1194   2.463       .  S
C1192      O1200   1.264       .  A
C1192      C1579   1.496       .  S
C1193      O1198   1.267       .  A
C1193      O1196   1.265       .  A
C1193      C1546   1.492       .  S
Cd1194     O1201   2.519       .  S
Cd1194     O1200   2.471       .  S
Cd1194     O1199   2.450       .  S
Cd1194     O1195   2.513       .  S
Cd1194     O1198   2.505       .  S
Cd1194     O1196   2.483       .  S
C1197      O1201   1.267       .  A
C1197      C1569   1.485       .  S
O1202      C1205   1.267       .  A
O1202     Cd1207   2.497       .  S
C1203      O1212   1.269       .  A
C1203      O1208   1.265       .  A
C1203      C1559   1.480       .  S
O1204      C1210   1.261       .  A
O1204     Cd1207   2.461       .  S
C1205      O1213   1.266       .  A
C1205      C1539   1.486       .  S
C1206      O1211   1.270       .  A
C1206      O1209   1.266       .  A
C1206      C1519   1.497       .  S
Cd1207     O1214   2.549       .  S
Cd1207     O1213   2.471       .  S
Cd1207     O1212   2.498       .  S
Cd1207     O1208   2.434       .  S
Cd1207     O1211   2.516       .  S
Cd1207     O1209   2.493       .  S
C1210      O1214   1.270       .  A
O1215      C1218   1.267       .  A
O1215     Cd1220   2.505       .  S
C1216      O1225   1.264       .  A
C1216      O1221   1.267       .  A
C1216      C1496   1.484       .  S
O1217      C1223   1.267       .  A
O1217     Cd1220   2.527       .  S
C1218      O1226   1.265       .  A
C1218      C1536   1.487       .  S
C1219      O1224   1.267       .  A
C1219      O1222   1.264       .  A
C1219      C1566   1.491       .  S
Cd1220     O1227   2.477       .  S
Cd1220     O1226   2.459       .  S
Cd1220     O1225   2.460       .  S
Cd1220     O1221   2.488       .  S
Cd1220     O1224   2.498       .  S
Cd1220     O1222   2.498       .  S
C1223      O1227   1.263       .  A
O1228      C1231   1.267       .  A
O1228     Cd1233   2.500       .  S
C1229      O1238   1.264       .  A
C1229      O1234   1.263       .  A
C1229      C1499   1.485       .  S
O1230      C1236   1.263       .  A
O1230     Cd1233   2.503       .  S
C1231      O1239   1.267       .  A
C1231      C1486   1.490       .  S
C1232      O1237   1.268       .  A
C1232      O1235   1.267       .  A
C1232      C1476   1.491       .  S
Cd1233     O1240   2.486       .  S
Cd1233     O1239   2.490       .  S
Cd1233     O1238   2.486       .  S
Cd1233     O1234   2.481       .  S
Cd1233     O1237   2.504       .  S
Cd1233     O1235   2.483       .  S
C1236      O1240   1.264       .  A
O1241      C1244   1.268       .  A
O1241     Cd1246   2.508       .  S
C1242      O1251   1.262       .  A
C1242      O1247   1.268       .  A
C1242      C1459   1.490       .  S
O1243      C1249   1.266       .  A
O1243     Cd1246   2.544       .  S
C1244      O1252   1.266       .  A
C1244      C1489   1.491       .  S
C1245      O1250   1.269       .  A
C1245      O1248   1.265       .  A
C1245      C1506   1.491       .  S
Cd1246     O1253   2.480       .  S
Cd1246     O1252   2.493       .  S
Cd1246     O1251   2.465       .  S
Cd1246     O1247   2.520       .  S
Cd1246     O1250   2.510       .  S
Cd1246     O1248   2.474       .  S
C1249      O1253   1.261       .  A
O1254      C1257   1.268       .  A
O1254     Cd1259   2.503       .  S
C1255      O1264   1.265       .  A
C1255      O1260   1.268       .  A
C1255      C1446   1.491       .  S
O1256      C1262   1.268       .  A
O1256     Cd1259   2.513       .  S
C1257      O1265   1.263       .  A
C1257      C1456   1.488       .  S
C1258      O1263   1.264       .  A
C1258      O1261   1.265       .  A
C1258      C1479   1.494       .  S
Cd1259     O1266   2.495       .  S
Cd1259     O1265   2.461       .  S
Cd1259     O1264   2.478       .  S
Cd1259     O1260   2.504       .  S
Cd1259     O1263   2.500       .  S
Cd1259     O1261   2.512       .  S
C1262      O1266   1.264       .  A
C1262      C1436   1.496       .  S
O1267      C1270   1.267       .  A
O1267     Cd1272   2.525       .  S
C1268      O1277   1.264       .  A
C1268      O1273   1.270       .  A
C1268      C1416   1.487       .  S
O1269      C1275   1.264       .  A
O1269     Cd1272   2.459       .  S
C1270      O1278   1.264       .  A
C1270      C1409   1.490       .  S
C1271      O1276   1.268       .  A
C1271      O1274   1.265       .  A
C1271      C1399   1.486       .  S
Cd1272     O1279   2.525       .  S
Cd1272     O1278   2.485       .  S
Cd1272     O1277   2.457       .  S
Cd1272     O1273   2.509       .  S
Cd1272     O1276   2.491       .  S
Cd1272     O1274   2.472       .  S
C1275      O1279   1.269       .  A
O1280      C1283   1.269       .  A
O1280     Cd1285   2.503       .  S
C1281      O1290   1.268       .  A
C1281      O1286   1.265       .  A
C1281      C1376   1.491       .  S
O1282      C1288   1.268       .  A
O1282     Cd1285   2.518       .  S
C1283      O1291   1.264       .  A
C1283      C1419   1.484       .  S
C1284      O1289   1.263       .  A
C1284      O1287   1.266       .  A
Cd1285     O1292   2.467       .  S
Cd1285     O1291   2.455       .  S
Cd1285     O1290   2.513       .  S
Cd1285     O1286   2.479       .  S
Cd1285     O1289   2.492       .  S
Cd1285     O1287   2.512       .  S
C1288      O1292   1.263       .  A
C1288      C1366   1.491       .  S
O1293      C1296   1.268       .  A
O1293     Cd1298   2.514       .  S
C1294      O1303   1.269       .  A
C1294      O1299   1.263       .  A
C1294      C1356   1.482       .  S
O1295      C1301   1.263       .  A
O1295     Cd1298   2.474       .  S
C1296      O1304   1.265       .  A
C1296      C1379   1.491       .  S
C1297      O1302   1.266       .  A
C1297      O1300   1.266       .  A
C1297      C1426   1.485       .  S
Cd1298     O1305   2.513       .  S
Cd1298     O1304   2.471       .  S
Cd1298     O1303   2.500       .  S
Cd1298     O1299   2.440       .  S
Cd1298     O1302   2.483       .  S
Cd1298     O1300   2.500       .  S
C1301      O1305   1.266       .  A
O1306      C1309   1.268       .  A
O1306     Cd1311   2.527       .  S
C1307      O1316   1.264       .  A
C1307      O1312   1.267       .  A
C1307      C1359   1.486       .  S
O1308      C1314   1.266       .  A
O1308     Cd1311   2.517       .  S
C1309      O1317   1.266       .  A
C1309      C1576   1.495       .  S
C1310      O1315   1.267       .  A
C1310      O1313   1.264       .  A
C1310      C1529   1.494       .  S
Cd1311     O1318   2.494       .  S
Cd1311     O1317   2.485       .  S
Cd1311     O1316   2.468       .  S
Cd1311     O1312   2.483       .  S
Cd1311     O1315   2.523       .  S
Cd1311     O1313   2.484       .  S
C1314      O1318   1.263       .  A
C1314      C1369   1.492       .  S
O1319      C1322   1.264       .  A
O1319     Cd1324   2.464       .  S
C1320      O1329   1.265       .  A
C1320      O1325   1.269       .  A
C1320      C1406   1.496       .  S
O1321      C1327   1.269       .  A
O1321     Cd1324   2.515       .  S
C1322      O1330   1.268       .  A
C1322      C1346   1.488       .  S
C1323      O1328   1.266       .  A
C1323      O1326   1.262       .  A
Cd1324     O1331   2.475       .  S
Cd1324     O1330   2.496       .  S
Cd1324     O1329   2.483       .  S
Cd1324     O1325   2.520       .  S
Cd1324     O1328   2.519       .  S
Cd1324     O1326   2.501       .  S
C1327      O1331   1.264       .  A
C1327      C1386   1.492       .  S
O1332      C1335   1.268       .  A
O1332     Cd1337   2.523       .  S
C1333      O1342   1.263       .  A
C1333      O1338   1.268       .  A
C1333      C1349   1.487       .  S
O1334      C1340   1.266       .  A
O1334     Cd1337   2.504       .  S
C1335      O1343   1.263       .  A
C1335      C1449   1.490       .  S
C1336      O1341   1.269       .  A
C1336      O1339   1.264       .  A
C1336      C1469   1.494       .  S
Cd1337     O1344   2.475       .  S
Cd1337     O1343   2.479       .  S
Cd1337     O1342   2.460       .  S
Cd1337     O1338   2.499       .  S
Cd1337     O1341   2.523       .  S
Cd1337     O1339   2.468       .  S
C1340      O1344   1.263       .  A
C1340      C1396   1.486       .  S
C1345      C1346   1.407       .  A
C1345      H1352   1.084   1_565  S
C1346      C1347   1.408   1_554  A
C1347      F1354   1.357       .  S
C1348      C1349   1.408       .  A
C1348      H1353   1.085       .  S
C1349      C1350   1.407   1_556  A
C1350      F1351   1.357       .  S
C1355      C1356   1.404       .  A
C1355      H1362   1.082       .  S
C1356      C1357   1.409   1_655  A
C1357      F1364   1.358       .  S
C1358      C1359   1.404       .  A
C1358      H1363   1.082       .  S
C1359      C1360   1.410       .  A
C1360      F1361   1.357       .  S
C1365      C1366   1.406       .  A
C1365      C1370   1.404       .  A
C1365      H1372   1.082       .  S
C1366      C1367   1.411       .  A
C1367      C1368   1.402       .  A
C1367      F1374   1.358       .  S
C1368      C1369   1.406       .  A
C1368      H1373   1.082       .  S
C1369      C1370   1.411       .  A
C1370      F1371   1.357       .  S
C1375      C1376   1.408       .  A
C1375      C1380   1.406       .  A
C1375      H1382   1.081       .  S
C1376      C1377   1.409       .  A
C1377      C1378   1.401       .  A
C1377      F1384   1.357       .  S
C1378      C1379   1.407       .  A
C1378      H1383   1.081       .  S
C1379      C1380   1.410       .  A
C1380      F1381   1.357       .  S
C1385      C1386   1.408       .  A
C1385      C1390   1.402       .  A
C1385      H1392   1.087       .  S
C1386      C1387   1.409       .  A
C1387      C1388   1.402       .  A
C1387      F1394   1.357       .  S
C1388      C1389   1.407       .  A
C1389      C1390   1.409       .  A
C1390      F1391   1.358       .  S
C1395      C1396   1.406       .  A
C1395      C1400   1.401   1_556  A
C1395      H1402   1.082       .  S
C1396      C1397   1.409       .  A
C1397      C1398   1.402   1_556  A
C1397      F1404   1.358       .  S
C1398      C1399   1.407       .  A
C1398      H1403   1.082       .  S
C1399      C1400   1.408       .  A
C1400      F1401   1.357       .  S
C1405      C1406   1.408       .  A
C1405      C1410   1.407       .  A
C1405      H1412   1.082       .  S
C1406      C1407   1.412       .  A
C1407      C1408   1.402       .  A
C1407      F1414   1.357       .  S
C1408      C1409   1.405       .  A
C1408      H1413   1.082       .  S
C1409      C1410   1.408       .  A
C1410      F1411   1.357       .  S
C1415      C1416   1.405       .  A
C1415      C1420   1.402       .  A
C1415      H1422   1.081       .  S
C1416      C1417   1.411       .  A
C1417      C1418   1.402       .  A
C1417      F1424   1.358       .  S
C1418      C1419   1.404       .  A
C1418      H1423   1.082       .  S
C1419      C1420   1.409       .  A
C1420      F1421   1.357       .  S
C1425      C1426   1.404       .  A
C1425      C1430   1.399   1_655  A
C1425      H1432   1.083   1_655  S
C1426      C1427   1.408       .  A
C1427      C1428   1.406       .  A
C1427      F1434   1.357       .  S
C1428      C1429   1.407   1_655  A
C1428      H1433   1.083       .  S
C1429      C1430   1.411       .  A
C1435      C1436   1.409   1_554  A
C1435      C1440   1.405       .  A
C1435      H1442   1.083   1_554  S
C1436      C1437   1.409       .  A
C1437      C1438   1.405   1_556  A
C1437      F1444   1.357       .  S
C1438      C1439   1.408   1_655  A
C1439      C1440   1.411   1_455  A
C1440      F1441   1.358       .  S
C1445      C1446   1.407       .  A
C1445      C1450   1.402       .  A
C1445      H1452   1.083       .  S
C1446      C1447   1.409       .  A
C1447      C1448   1.405       .  A
C1447      F1454   1.357       .  S
C1448      C1449   1.406       .  A
C1448      H1453   1.083       .  S
C1449      C1450   1.410       .  A
C1450      F1451   1.358       .  S
C1455      C1456   1.406       .  A
C1455      H1462   1.082       .  S
C1457      C1458   1.403       .  A
C1457      F1464   1.357       .  S
C1458      C1459   1.406       .  A
C1458      H1463   1.082       .  S
C1459      C1460   1.412       .  A
C1460      F1461   1.358       .  S
C1465      C1466   1.406       .  A
C1465      C1470   1.402       .  A
C1465      H1472   1.083       .  S
C1467      F1474   1.357   1_545  S
C1468      C1469   1.407       .  A
C1468      H1473   1.083       .  S
C1469      C1470   1.410       .  A
C1470      F1471   1.357       .  S
C1475      C1476   1.406       .  A
C1475      C1480   1.404       .  A
C1475      H1482   1.084       .  S
C1476      C1477   1.409       .  A
C1477      C1478   1.404       .  A
C1477      F1484   1.357       .  S
C1478      C1479   1.408       .  A
C1478      H1483   1.083       .  S
C1479      C1480   1.410       .  A
C1480      F1481   1.357       .  S
C1485      C1486   1.407       .  A
C1485      C1490   1.405       .  A
C1485      H1492   1.080       .  S
C1486      C1487   1.409       .  A
C1487      C1488   1.404       .  A
C1487      F1494   1.357       .  S
C1488      C1489   1.406       .  A
C1488      H1493   1.080       .  S
C1489      C1490   1.410       .  A
C1490      F1491   1.358       .  S
C1495      C1496   1.406       .  A
C1495      C1500   1.399       .  A
C1495      H1502   1.085       .  S
C1496      C1497   1.408       .  A
C1497      C1498   1.400       .  A
C1497      F1504   1.357       .  S
C1498      C1499   1.407       .  A
C1498      H1503   1.085       .  S
C1499      C1500   1.408       .  A
C1500      F1501   1.357       .  S
C1505      C1506   1.408       .  A
C1505      C1510   1.405       .  A
C1505      H1512   1.082       .  S
C1506      C1507   1.407       .  A
C1507      C1508   1.402       .  A
C1507      F1514   1.357       .  S
C1508      C1509   1.409       .  A
C1509      C1510   1.410       .  A
C1510      F1511   1.357       .  S
C1515      C1516   1.407       .  A
C1515      C1520   1.404       .  A
C1516      C1517   1.411       .  A
C1517      C1518   1.406       .  A
C1517      F1524   1.358       .  S
C1518      C1519   1.409       .  A
C1518      H1523   1.085       .  S
C1519      C1520   1.409       .  A
C1520      F1521   1.357       .  S
C1525      C1526   1.406       .  A
C1525      C1530   1.404       .  A
C1526      C1527   1.411       .  A
C1527      C1528   1.405       .  A
C1527      F1534   1.358       .  S
C1528      C1529   1.407       .  A
C1528      H1533   1.081       .  S
C1529      C1530   1.411       .  A
C1530      F1531   1.357       .  S
C1535      C1536   1.407       .  A
C1535      C1540   1.404       .  A
C1535      H1542   1.082       .  S
C1536      C1537   1.409       .  A
C1537      C1538   1.399       .  A
C1537      F1544   1.358       .  S
C1538      C1539   1.405       .  A
C1538      H1543   1.082       .  S
C1539      C1540   1.409       .  A
C1540      F1541   1.357       .  S
C1545      C1546   1.407       .  A
C1545      C1550   1.404       .  A
C1545      H1552   1.084       .  S
C1546      C1547   1.411       .  A
C1547      C1548   1.402       .  A
C1547      F1554   1.357       .  S
C1548      C1549   1.405       .  A
C1549      C1550   1.410       .  A
C1550      F1551   1.357   1_565  S
C1555      C1556   1.407   1_545  A
C1555      H1562   1.085       .  S
C1556      C1557   1.408       .  A
C1557      F1564   1.357       .  S
C1558      C1559   1.404       .  A
C1558      H1563   1.085       .  S
C1559      C1560   1.407       .  A
C1560      F1561   1.358       .  S
C1565      C1566   1.406       .  A
C1565      C1570   1.400       .  A
C1565      H1572   1.081       .  S
C1566      C1567   1.412       .  A
C1567      C1568   1.405       .  A
C1567      F1574   1.357       .  S
C1568      C1569   1.405       .  A
C1568      H1573   1.081       .  S
C1569      C1570   1.407       .  A
C1570      F1571   1.357       .  S
C1575      C1576   1.409       .  A
C1575      C1580   1.410       .  A
C1575      H1582   1.082       .  S
C1576      C1577   1.409       .  A
C1577      C1578   1.400       .  A
C1577      F1584   1.357       .  S
C1578      C1579   1.407       .  A
C1578      H1583   1.082       .  S
C1579      C1580   1.411       .  A
C1580      F1581   1.357       .  S
