geometry optimzed in LAMMPS
_audit_creation_date              2020-11-30 
_audit_creation_method            'lammps2cif' 
_symmetry_space_group_name_H-M    'P1' 
_symmetry_Int_Tables_number       1 
_symmetry_cell_setting            triclinic 
loop_ 
_symmetry_equiv_pos_as_xyz 
  x,y,z 
_cell_length_a                    72.77807342027151 
_cell_length_b                    39.406965682723175 
_cell_length_c                    54.7533460678604 
_cell_angle_alpha                 90.16094797064889 
_cell_angle_beta                  90.71767518698229 
_cell_angle_gamma                 90.6057675512528 
loop_ 
_atom_site_label 
_atom_site_type_symbol 
_atom_site_fract_x 
_atom_site_fract_y 
_atom_site_fract_z 
_atom_site_charge 
O1          O  0.96326543  0.47099154  0.10071330    -0.57510
C2          C  0.96201988  0.37301158  0.09140726     0.75120
O3          O  0.92555775  0.42315321  0.04103027    -0.58670
C4          C  0.95602045  0.99801163  0.09279263     0.75090
C5          C  0.97787988  0.45445761  0.02749652     0.77480
Cd6        Cd  0.95325561  0.43563303  0.06627590     1.37460
O7          O  0.96314380  0.40165879  0.10174928    -0.57510
O8          O  0.98343940  0.45081442  0.04929301    -0.56320
C9          C  0.91424911  0.43111820  0.05740394     0.77440
O10         O  0.96132389  0.44610296  0.02331350    -0.58690
O11         O  0.95739723  0.37341449  0.06904019    -0.57140
O12         O  0.94733003  0.99575433  0.07269147    -0.57130
O13         O  0.92105372  0.44039473  0.07774847    -0.56300
O14         O  0.78289295  0.46442960  0.08204003    -0.57510
C15         C  0.79645756  0.36745709  0.08026366     0.75120
O16         O  0.78721723  0.41317067  0.00856681    -0.58670
C17         C  0.78672126  0.49205326  0.07147618     0.75090
C18         C  0.83553646  0.43370859  0.04749344     0.77480
Cd19       Cd  0.79642930  0.42698935  0.05131830     1.37470
O20         O  0.79165129  0.39552526  0.08938030    -0.57510
O21         O  0.82734465  0.43274509  0.06766030    -0.56320
C22         C  0.77256287  0.39773821  0.01450387     0.77440
O23         O  0.82565345  0.43155282  0.02832454    -0.58690
O24         O  0.80160856  0.36757100  0.05832370    -0.57140
O25         O  0.79284771  0.48945534  0.04997142    -0.57130
O26         O  0.76782474  0.40039710  0.03657009    -0.56300
O27         O  0.97222386  0.22199955  0.13888868    -0.57510
C28         C  0.96090473  0.12568028  0.14377813     0.75120
O29         O  0.96900705  0.17020614  0.21414599    -0.58670
C30         C  0.96893333  0.25032602  0.14869472     0.75090
C31         C  0.92134058  0.18776694  0.17301251     0.77480
Cd32       Cd  0.96075690  0.18634637  0.17169471     1.37470
O33         O  0.96886759  0.15218652  0.13597230    -0.57510
O34         O  0.93061884  0.18332504  0.15396836    -0.56320
C35         C  0.98518396  0.16106861  0.20910214     0.77440
O36         O  0.93048215  0.19328650  0.19256335    -0.58690
O37         O  0.95354950  0.12736602  0.16451324    -0.57140
O38         O  0.96351035  0.24954307  0.17063258    -0.57130
O39         O  0.99065912  0.16837062  0.18790508    -0.56300
O40         O  0.79861234  0.14486816  0.11786447    -0.57510
C41         C  0.79795939  0.24010964  0.13089301     0.75120
O42         O  0.79711610  0.19271692  0.19817928    -0.58670
C43         C  0.79477695  0.11653456  0.12732181     0.75090
C44         C  0.84226863  0.17516061  0.16281521     0.77480
Cd45       Cd  0.80311150  0.17725788  0.15562386     1.37460
O46         O  0.79006641  0.21314154  0.12355159    -0.57510
O47         O  0.83457014  0.18671392  0.14384211    -0.56320
C48         C  0.77996185  0.19615781  0.19545861     0.77440
O49         O  0.83173790  0.16306502  0.17896743    -0.58690
O50         O  0.80807880  0.23760578  0.14969833    -0.57140
O51         O  0.79426398  0.11597437  0.15048984    -0.57130
O52         O  0.77320751  0.18652418  0.17514365    -0.56300
O53         O  0.54127674  0.31124534  0.33454534    -0.57510
C54         C  0.54735357  0.20980789  0.32914228     0.75120
O55         O  0.54580619  0.28998097  0.26210931    -0.58670
C56         C  0.55334923  0.33414067  0.33150469     0.75090
C57         C  0.59306392  0.26727364  0.29771466     0.77480
Cd58       Cd  0.55424692  0.27284839  0.30423331     1.37470
O59         O  0.54927786  0.23803839  0.33985487    -0.57510
O60         O  0.58545053  0.26979593  0.31823103    -0.56320
C61         C  0.52946578  0.29793817  0.26728556     0.77440
O62         O  0.58249204  0.26641382  0.27908826    -0.58690
O63         O  0.54674159  0.21044957  0.30596595    -0.57140
O64         O  0.56595760  0.32808512  0.31652686    -0.57130
O65         O  0.52419739  0.29011510  0.28847584    -0.56300
O66         O  0.73031065  0.31703443  0.33429780    -0.57510
C67         C  0.71618606  0.21574433  0.33399209     0.75120
O68         O  0.68186718  0.29005733  0.28675487    -0.58670
C69         C  0.71875733  0.34079988  0.33382489     0.75090
C70         C  0.73375699  0.26264812  0.26606917     0.77480
Cd71       Cd  0.71163316  0.27781742  0.30770729     1.37470
O72         O  0.71673941  0.24406738  0.34501261    -0.57510
O73         O  0.74089339  0.27292105  0.28598792    -0.56320
C74         C  0.67241803  0.27371215  0.30223355     0.77440
O75         O  0.71645212  0.26447655  0.26437390    -0.58690
O76         O  0.71404838  0.21686176  0.31114822    -0.57140
O77         O  0.70490232  0.33649191  0.31995627    -0.57130
O78         O  0.68130978  0.26015522  0.31953449    -0.56300
O79         O  0.54258186  0.05740131  0.37661171    -0.57510
C80         C  0.55481202  0.46037291  0.38423568     0.75120
O81         O  0.58447899  0.02807761  0.43432093    -0.58670
C82         C  0.54731884  0.08578495  0.38559576     0.75090
C83         C  0.53064176  0.00294434  0.44914509     0.77480
Cd84       Cd  0.55520835  0.02273643  0.41045433     1.37470
O85         O  0.54477839  0.48483732  0.37754453    -0.57510
O86         O  0.52666709  0.99922165  0.42677718    -0.56320
C87         C  0.59457299  0.02496592  0.41573598     0.77440
O88         O  0.54548272  0.01885692  0.45390817    -0.58690
O89         O  0.56479310  0.46513120  0.40299678    -0.57140
O90         O  0.55434176  0.08509903  0.40686596    -0.57130
O91         O  0.58627664  0.02205191  0.39539546    -0.56300
O92         O  0.72727485  0.48941235  0.38375706    -0.57510
C93         C  0.71497482  0.08909536  0.38646323     0.75120
O94         O  0.68395350  0.01924791  0.43568085    -0.58670
C95         C  0.72109479  0.46238961  0.39316566     0.75090
C96         C  0.73635664  0.05566824  0.45263653     0.77480
Cd97       Cd  0.71339480  0.02806838  0.41406331     1.37460
O98         O  0.72300093  0.06267377  0.37901450    -0.57510
O99         O  0.74269921  0.04794149  0.43197176    -0.56320
C100        C  0.67414723  0.02275773  0.41653642     0.77440
O101        O  0.72013909  0.04544730  0.45676586    -0.58690
O102        O  0.70567881  0.08619148  0.40567319    -0.57140
O103        O  0.71344574  0.46539227  0.41370065    -0.57130
O104        O  0.68262902  0.02847897  0.39692383    -0.56300
O105        O  0.96987173  0.39334881  0.63848364    -0.57510
C106        C  0.96677838  0.49290349  0.65041688     0.75120
O107        O  0.93042854  0.44030216  0.69380948    -0.58670
C108        C  0.96156020  0.36678668  0.64556482     0.75090
C109        C  0.98225670  0.40348895  0.71366716     0.77480
Cd110      Cd  0.96004487  0.42796618  0.67368104     1.37470
O111        O  0.97563824  0.46677530  0.64442140    -0.57510
O112        O  0.98939842  0.41518540  0.69445477    -0.56320
C113        C  0.92093123  0.42731559  0.67645805     0.77440
O114        O  0.96527634  0.40876140  0.71608617    -0.58690
O115        O  0.95627106  0.48978613  0.66854398    -0.57140
O116        O  0.95275182  0.36938367  0.66517180    -0.57130
O117        O  0.92963401  0.41683418  0.65813861    -0.56300
O118        O  0.79537922  0.38866427  0.62567933    -0.57510
C119        C  0.80145670  0.48667355  0.63536118     0.75120
O120        O  0.79246686  0.42573547  0.70409667    -0.58670
C121        C  0.79477774  0.36058299  0.63680324     0.75090
C122        C  0.84184119  0.42150141  0.67201692     0.77480
Cd123      Cd  0.80304214  0.42393738  0.66149943     1.37470
O124        O  0.79364147  0.46008618  0.62714355    -0.57510
O125        O  0.83485817  0.40990192  0.65240963    -0.56320
C126        C  0.77694752  0.43827321  0.69892526     0.77440
O127        O  0.83074584  0.43307131  0.68745608    -0.58690
O128        O  0.81030398  0.48350828  0.65516364    -0.57140
O129        O  0.79714653  0.36200281  0.65977625    -0.57130
O130        O  0.77296342  0.44059491  0.67646595    -0.56300
O131        O  0.97546104  0.13889317  0.59372524    -0.57510
C132        C  0.95988268  0.23853848  0.59448451     0.75120
O133        O  0.96595097  0.18450260  0.52232394    -0.58670
C134        C  0.96501036  0.11347711  0.59005906     0.75090
C135        C  0.91882546  0.17886134  0.55709338     0.77480
Cd136      Cd  0.95784139  0.17766900  0.56591026     1.37460
O137        O  0.95726376  0.21001327  0.60447915    -0.57510
O138        O  0.92625574  0.18537876  0.57757903    -0.56320
C139        C  0.98180699  0.19692837  0.52665055     0.77440
O140        O  0.92959360  0.17239747  0.53970798    -0.58690
O141        O  0.96177080  0.23853352  0.57161122    -0.57140
O142        O  0.95298615  0.11661159  0.57339382    -0.57130
O143        O  0.98724359  0.19617920  0.54869214    -0.56300
O144        O  0.79621378  0.14190654  0.59379494    -0.57510
C145        C  0.79063489  0.23604733  0.58040963     0.75120
O146        O  0.82977985  0.19175015  0.53687216    -0.58670
C147        C  0.79651306  0.11311883  0.58344788     0.75090
C148        C  0.77633959  0.14857275  0.51698014     0.77480
Cd149      Cd  0.79979758  0.17366217  0.55569721     1.37470
O150        O  0.78974215  0.20732121  0.59052896    -0.57510
O151        O  0.77002613  0.15681508  0.53760064    -0.56320
C152        C  0.83931854  0.17594791  0.55260356     0.77440
O153        O  0.79288614  0.15710890  0.51308616    -0.58690
O154        O  0.79404819  0.23598705  0.55775120    -0.57140
O155        O  0.79786408  0.11277190  0.56047162    -0.57130
O156        O  0.83044917  0.15910309  0.56809417    -0.56300
O157        O  0.54100557  0.00352777  0.84411873    -0.57510
C158        C  0.54973795  0.09763988  0.83837360     0.75120
O159        O  0.57801324  0.02476353  0.78505294    -0.58670
C160        C  0.54198783  0.47473354  0.83411587     0.75090
C161        C  0.52671441  0.06864112  0.77083895     0.77480
Cd162      Cd  0.54969264  0.03825647  0.80876372     1.37460
O163        O  0.53598238  0.07769738  0.83794868    -0.57510
O164        O  0.52058017  0.05949923  0.79130280    -0.56320
C165        C  0.58873799  0.03406052  0.80237673     0.77440
O166        O  0.54303100  0.05969024  0.76650607    -0.58690
O167        O  0.56338122  0.08923729  0.82576346    -0.57140
O168        O  0.54481555  0.47508040  0.81129443    -0.57130
O169        O  0.58112949  0.04413218  0.82167124    -0.56300
O170        O  0.71445039  0.49050263  0.84524485    -0.57510
C171        C  0.71712090  0.08896017  0.83124906     0.75120
O172        O  0.71517206  0.00969130  0.76696057    -0.58670
C173        C  0.70902055  0.46280431  0.83571263     0.75090
C174        C  0.66816573  0.03120788  0.80353544     0.77480
Cd175      Cd  0.70727400  0.02462065  0.80916574     1.37460
O176        O  0.72002789  0.06110047  0.84191070    -0.57510
O177        O  0.67611709  0.02773471  0.82401347    -0.56320
C178        C  0.73181784  0.50295584  0.77165933     0.77440
O179        O  0.67835935  0.03161663  0.78494526    -0.58690
O180        O  0.71111626  0.08692546  0.80944045    -0.57140
O181        O  0.70228001  0.46426423  0.81438697    -0.57130
O182        O  0.73746894  0.01039789  0.79297466    -0.56300
O183        O  0.54795148  0.32024853  0.87906923    -0.57510
C184        C  0.55322861  0.22531287  0.88898356     0.75120
O185        O  0.58151586  0.30069221  0.94166941    -0.58670
C186        C  0.54526722  0.34852249  0.88920886     0.75090
C187        C  0.52757186  0.25996300  0.95161691     0.77480
Cd188      Cd  0.55350498  0.28638710  0.91624605     1.37460
O189        O  0.54394287  0.25057445  0.88187759    -0.57510
O190        O  0.52455278  0.25945811  0.92887461    -0.56320
C191        C  0.59247326  0.28761292  0.92654680     0.77440
O192        O  0.54173128  0.27655971  0.95856406    -0.58690
O193        O  0.56234130  0.22856329  0.90868522    -0.57140
O194        O  0.54582045  0.34825883  0.91237396    -0.57130
O195        O  0.58547105  0.27584334  0.90708634    -0.56300
O196        O  0.70992195  0.24214442  0.87743882    -0.57510
C197        C  0.71066611  0.33690275  0.88821786     0.75120
O198        O  0.68188655  0.25694167  0.93907969    -0.58670
C199        C  0.71588993  0.21479956  0.88622956     0.75090
C200        C  0.73534767  0.30215656  0.94994567     0.77480
Cd201      Cd  0.70924751  0.27553570  0.91478458     1.37470
O202        O  0.71756297  0.31009193  0.87951956    -0.57510
O203        O  0.73886366  0.30036131  0.92743751    -0.56320
C204        C  0.67071676  0.27390094  0.92611974     0.77440
O205        O  0.72093264  0.28681297  0.95688639    -0.58690
O206        O  0.70301000  0.33456338  0.90874531    -0.57140
O207        O  0.71979905  0.21535195  0.90888600    -0.57130
O208        O  0.67738479  0.29020272  0.90850152    -0.56300
O209        O  0.04189625  0.25045343  0.84679910    -0.57510
C210        C  0.04757865  0.34382961  0.83829992     0.75120
O211        O  0.07555597  0.26705897  0.78511348    -0.58670
C212        C  0.03997133  0.22168840  0.83685326     0.75090
C213        C  0.02565225  0.31222384  0.77346355     0.77480
Cd214      Cd  0.04884104  0.28289392  0.81054267     1.37470
O215        O  0.03680210  0.31925560  0.84260593    -0.57510
O216        O  0.01878701  0.29805825  0.79202012    -0.56320
C217        C  0.08720601  0.27316974  0.80202864     0.77440
O218        O  0.04260909  0.30752957  0.77032200    -0.58690
O219        O  0.05939325  0.33913086  0.82194088    -0.57140
O220        O  0.04058650  0.22114992  0.81367054    -0.57130
O221        O  0.08102322  0.28262338  0.82237889    -0.56300
O222        O  0.21325758  0.23806966  0.84691916    -0.57510
C223        C  0.21323750  0.33235032  0.83709389     0.75120
O224        O  0.21444489  0.25921089  0.76649778    -0.58670
C225        C  0.21091119  0.20916277  0.83713439     0.75090
C226        C  0.16640352  0.26755874  0.80251579     0.77480
Cd227      Cd  0.20598500  0.26975657  0.80974262     1.37470
O228        O  0.21124581  0.30373570  0.84709152    -0.57510
O229        O  0.17500763  0.25012041  0.81800871    -0.56320
C230        C  0.23108510  0.25196456  0.77090188     0.77440
O231        O  0.17626940  0.28666548  0.78933326    -0.58690
O232        O  0.21279797  0.33224129  0.81393002    -0.57140
O233        O  0.20662985  0.20842633  0.81468502    -0.57130
O234        O  0.23642790  0.25643054  0.79276693    -0.56300
O235        O  0.03591058  0.06781617  0.88281873    -0.57510
C236        C  0.04624708  0.47252203  0.88812254     0.75120
O237        O  0.07969968  0.04418247  0.93764993    -0.58670
C238        C  0.04010894  0.09639428  0.89188884     0.75090
C239        C  0.02566896  0.01477721  0.95503439     0.77480
Cd240      Cd  0.04963365  0.03332978  0.91572646     1.37460
O241        O  0.04874134  0.50084670  0.87773959    -0.57510
O242        O  0.01978008  0.01929937  0.93344567    -0.56320
C243        C  0.08909087  0.02919131  0.92160241     0.77440
O244        O  0.04241796  0.02231988  0.95891100    -0.58690
O245        O  0.04447403  0.47290100  0.91106095    -0.57140
O246        O  0.04775918  0.09578392  0.91279670    -0.57130
O247        O  0.08017741  0.01776932  0.90346188    -0.56300
O248        O  0.21555266  0.48523363  0.88363418    -0.57510
C249        C  0.20926413  0.08424283  0.89140929     0.75120
O250        O  0.17899263  0.01577866  0.94308159    -0.58670
C251        C  0.21364989  0.45710389  0.89441506     0.75090
C252        C  0.23255400  0.04386998  0.95690083     0.77480
Cd253      Cd  0.20732042  0.02210545  0.91833245     1.37460
O254        O  0.21936327  0.05940112  0.88598696    -0.57510
O255        O  0.23797576  0.03569198  0.93586569    -0.56320
C256        C  0.16829688  0.02002413  0.92489561     0.77440
O257        O  0.21570453  0.03825839  0.96094094    -0.58690
O258        O  0.19825330  0.07955390  0.90872552    -0.57140
O259        O  0.21006691  0.45892409  0.91698309    -0.57130
O260        O  0.17571297  0.02346691  0.90428347    -0.56300
O261        O  0.47103631  0.19183274  0.09046629    -0.57510
C262        C  0.46750407  0.09233404  0.08421097     0.75120
O263        O  0.43129014  0.13454179  0.03474731    -0.58670
C264        C  0.45922576  0.21465186  0.08636948     0.75090
C265        C  0.48402228  0.18292741  0.02121540     0.77480
Cd266      Cd  0.45941758  0.15470903  0.05774738     1.37460
O267        O  0.46595773  0.12073019  0.09466065    -0.57510
O268        O  0.48808703  0.18142595  0.04364079    -0.56320
C269        C  0.42031708  0.15000837  0.04864658     0.77440
O270        O  0.46927017  0.16777813  0.01483013    -0.58690
O271        O  0.46635952  0.09284694  0.06109880    -0.57140
O272        O  0.44767606  0.20914113  0.06932900    -0.57130
O273        O  0.42742923  0.16650982  0.06619357    -0.56300
O274        O  0.28909636  0.09682857  0.09632163    -0.57510
C275        C  0.29819565  0.20059234  0.09482927     0.75120
O276        O  0.32987397  0.15843057  0.04326364    -0.58670
C277        C  0.30267795  0.07698400  0.09670539     0.75090
C278        C  0.27893690  0.11410572  0.02882675     0.77480
Cd279      Cd  0.30362274  0.13739724  0.06784310     1.37460
O280        O  0.29653549  0.17185535  0.10479884    -0.57510
O281        O  0.27299763  0.12567154  0.04873997    -0.56320
C282        C  0.34183273  0.14159983  0.05499205     0.77440
O283        O  0.29611900  0.11642270  0.02609608    -0.58690
O284        O  0.30156748  0.20017399  0.07220905    -0.57140
O285        O  0.31640769  0.08580275  0.08429754    -0.57130
O286        O  0.33615173  0.12385285  0.07261698    -0.56300
O287        O  0.47379410  0.36118929  0.13994664    -0.57510
C288        C  0.46610962  0.46628805  0.13930805     0.75120
O289        O  0.43407667  0.40086375  0.19631207    -0.58670
C290        C  0.45975040  0.34236530  0.13755986     0.75090
C291        C  0.48495875  0.38042771  0.20239769     0.77480
Cd292      Cd  0.45920749  0.40351306  0.16577795     1.37470
O293        O  0.46446162  0.43758531  0.12922586    -0.57510
O294        O  0.48968374  0.38618979  0.18065348    -0.56320
C295        C  0.42148010  0.40615187  0.18064780     0.77440
O296        O  0.46891345  0.38956594  0.20800773    -0.58690
O297        O  0.46558805  0.46624424  0.16247790    -0.57140
O298        O  0.44525062  0.35271537  0.14745163    -0.57130
O299        O  0.42646011  0.41086400  0.15885538    -0.56300
O300        O  0.30056613  0.35490915  0.14070028    -0.57510
C301        C  0.30146878  0.45011706  0.14906926     0.75120
O302        O  0.29719455  0.41501165  0.21806475    -0.58670
C303        C  0.29919707  0.32629004  0.15089597     0.75090
C304        C  0.34325703  0.39142902  0.18614286     0.77480
Cd305      Cd  0.30421552  0.38981588  0.17764169     1.37460
O306        O  0.28919730  0.42716156  0.14692479    -0.57510
O307        O  0.33515294  0.40408904  0.16787459    -0.56320
C308        C  0.27994723  0.41558912  0.21490249     0.77440
O309        O  0.33322607  0.37553514  0.20126074    -0.58690
O310        O  0.31450180  0.44432072  0.16382515    -0.57140
O311        O  0.29893338  0.32664167  0.17407037    -0.57130
O312        O  0.27382875  0.40000100  0.19622989    -0.56300
O313        O  0.46826192  0.14409108  0.63092718    -0.57510
C314        C  0.46834181  0.24363911  0.64289943     0.75120
O315        O  0.43136456  0.18353241  0.69073544    -0.58670
C316        C  0.45939428  0.11820407  0.63804361     0.75090
C317        C  0.48552783  0.15436788  0.70326504     0.77480
Cd318      Cd  0.46001301  0.17916760  0.66619441     1.37470
O319        O  0.46953933  0.21536169  0.63212232    -0.57510
O320        O  0.48993391  0.15757149  0.68111743    -0.56320
C321        C  0.42075076  0.18330776  0.67218322     0.77440
O322        O  0.47010423  0.16663117  0.70890936    -0.58690
O323        O  0.46492872  0.24215621  0.66553779    -0.57140
O324        O  0.45093602  0.12100405  0.65795679    -0.57130
O325        O  0.42830743  0.18256184  0.65156428    -0.56300
O326        O  0.29425364  0.21181320  0.62139271    -0.57510
C327        C  0.29672162  0.11386661  0.62914425     0.75120
O328        O  0.33084427  0.16864094  0.68194910    -0.58670
C329        C  0.30020097  0.23942739  0.63048108     0.75090
C330        C  0.27673706  0.19160771  0.69577880     0.77480
Cd331      Cd  0.30244984  0.17665762  0.65677956     1.37470
O332        O  0.28789363  0.14046567  0.62425373    -0.57510
O333        O  0.27200944  0.19075698  0.67351990    -0.56320
C334        C  0.34158938  0.18056152  0.66595968     0.77440
O335        O  0.29295454  0.18198247  0.70037815    -0.58690
O336        O  0.30704656  0.11516426  0.64789655    -0.57140
O337        O  0.30730827  0.23760892  0.65161433    -0.57130
O338        O  0.33429363  0.18869057  0.64574141    -0.56300
O339        O  0.46507056  0.39592354  0.59514623    -0.57510
C340        C  0.45692941  0.49073857  0.58601109     0.75120
O341        O  0.46823928  0.42988619  0.51666420    -0.58670
C342        C  0.46559063  0.36704855  0.58507573     0.75090
C343        C  0.41774563  0.42223647  0.54575419     0.77480
Cd344      Cd  0.45636176  0.42847776  0.55869611     1.37460
O345        O  0.46020712  0.46252763  0.59591648    -0.57510
O346        O  0.42423519  0.41203465  0.56589260    -0.56320
C347        C  0.48392667  0.44189053  0.52233271     0.77440
O348        O  0.42911888  0.43509901  0.53110476    -0.58690
O349        O  0.45318622  0.49002567  0.56343056    -0.57140
O350        O  0.46266265  0.36656787  0.56217406    -0.57130
O351        O  0.48729799  0.44507555  0.54495245    -0.56300
O352        O  0.28558715  0.46535403  0.57798878    -0.57510
C353        C  0.29935879  0.36669144  0.57869449     0.75120
O354        O  0.29134569  0.40622954  0.50674034    -0.58670
C355        C  0.29307774  0.99196797  0.56965628     0.75090
C356        C  0.33892706  0.42677628  0.54108008     0.77480
Cd357      Cd  0.29988890  0.42560533  0.54846142     1.37470
O358        O  0.29704819  0.39581112  0.58798414    -0.57510
O359        O  0.33156762  0.41647803  0.56051945    -0.56320
C360        C  0.27478648  0.39897231  0.51147024     0.77440
O361        O  0.32814040  0.43701370  0.52434260    -0.58690
O362        O  0.30160823  0.36530127  0.55590106    -0.57140
O363        O  0.30221597  0.98838899  0.55030943    -0.57130
O364        O  0.26920100  0.40899260  0.53205619    -0.56300
O365        O  0.04041593  0.50265164  0.34218244    -0.57510
C366        C  0.05003615  0.09734580  0.34140581     0.75120
O367        O  0.07741157  0.04194820  0.28194530    -0.58670
C368        C  0.04130956  0.47511819  0.33039606     0.75090
C369        C  0.02701670  0.07106805  0.27233565     0.77480
Cd370      Cd  0.05027336  0.04032640  0.30919065     1.37460
O371        O  0.03584543  0.07919761  0.33786936    -0.57510
O372        O  0.02034289  0.05538747  0.29035345    -0.56320
C373        C  0.08855577  0.03256059  0.29851064     0.77440
O374        O  0.04414625  0.06797463  0.26951319    -0.58690
O375        O  0.06451827  0.08780208  0.33111159    -0.57140
O376        O  0.04478503  0.47772923  0.30780465    -0.57130
O377        O  0.08184767  0.02601390  0.31918907    -0.56300
O378        O  0.21425346  0.06108318  0.34407477    -0.57510
C379        C  0.20859514  0.46677265  0.33508854     0.75120
O380        O  0.17894869  0.04388323  0.28259308    -0.58670
C381        C  0.21478136  0.08993448  0.33404945     0.75090
C382        C  0.23263216  0.00169326  0.27268126     0.77480
Cd383      Cd  0.20665758  0.02759491  0.30755044     1.37470
O384        O  0.21268212  0.49505954  0.34484395    -0.57510
O385        O  0.23808028  0.01789882  0.29147528    -0.56320
C386        C  0.16765713  0.03268357  0.29817077     0.77440
O387        O  0.21553214  0.00230036  0.26827088    -0.58690
O388        O  0.20330458  0.46698974  0.31305827    -0.57140
O389        O  0.21272535  0.09020678  0.31096793    -0.57130
O390        O  0.17458619  0.01995547  0.31726196    -0.56300
O391        O  0.04380601  0.32250274  0.37721869    -0.57510
C392        C  0.04769521  0.22676733  0.39000866     0.75120
O393        O  0.07621677  0.29049706  0.44216685    -0.58670
C394        C  0.04057435  0.35093195  0.38683670     0.75090
C395        C  0.02380783  0.26908449  0.45313441     0.77480
Cd396      Cd  0.04846259  0.29019360  0.41491435     1.37460
O397        O  0.03543853  0.24867949  0.38599068    -0.57510
O398        O  0.02020168  0.26454137  0.43070088    -0.56320
C399        C  0.08734763  0.29274544  0.42460833     0.77440
O400        O  0.03798663  0.28700969  0.45796273    -0.58690
O401        O  0.06027445  0.23490875  0.40507477    -0.57140
O402        O  0.03986869  0.35139471  0.40998415    -0.57130
O403        O  0.08043469  0.29639825  0.40352816    -0.56300
O404        O  0.21450613  0.24245230  0.38049364    -0.57510
C405        C  0.20606892  0.34044412  0.38712252     0.75120
O406        O  0.17629978  0.26803016  0.43821670    -0.58670
C407        C  0.21215371  0.21435001  0.39115583     0.75090
C408        C  0.22975494  0.30742265  0.45142605     0.77480
Cd409      Cd  0.20491615  0.27931282  0.41464382     1.37460
O410        O  0.21563752  0.31522102  0.38083650    -0.57510
O411        O  0.23512429  0.29885901  0.43044316    -0.56320
C412        C  0.16592917  0.28005653  0.42161587     0.77440
O413        O  0.21359943  0.29805182  0.45669850    -0.58690
O414        O  0.19568094  0.33611709  0.40514469    -0.57140
O415        O  0.20731779  0.21621061  0.41327650    -0.57130
O416        O  0.17354692  0.28857203  0.40192423    -0.56300
C417        C  0.11802588  0.31642921  0.41701576    -0.26010
C418        C  0.10744272  0.29079617  0.42778594    -0.14090
C419        C  0.11633759  0.26219525  0.43807973     0.36540
C420        C  0.13555269  0.25992076  0.43679167    -0.25460
C421        C  0.14598182  0.28477016  0.42480257    -0.14700
C422        C  0.13715645  0.31378222  0.41532758     0.37630
N423        N  0.14762500  0.34074326  0.40431500    -0.88950
H424        H  0.11121419  0.33822473  0.40912624     0.18740
H425        H  0.14227489  0.23765417  0.44408825     0.18730
N426        N  0.10646080  0.23394441  0.44835100    -0.87980
H427        H  0.13929441  0.36168708  0.40084146     0.36110
H428        H  0.15189129  0.33221367  0.38723544     0.41210
H429        H  0.09228018  0.23682877  0.44712814     0.40830
H430        H  0.10989186  0.23281715  0.46693639     0.35720
C431        C  0.22359168  0.18132693  0.35541326    -0.26010
C432        C  0.21446089  0.18147133  0.37794634    -0.14090
C433        C  0.20673706  0.15071682  0.38651014     0.36540
C434        C  0.20772230  0.12125436  0.37200591    -0.25460
C435        C  0.21633631  0.12136779  0.34914523    -0.14700
C436        C  0.22489032  0.15175486  0.34114279     0.37630
N437        N  0.23556873  0.15352518  0.31928296    -0.88950
H438        H  0.22992521  0.20448627  0.34878243     0.18740
H439        H  0.20116166  0.09813610  0.37833346     0.18730
N440        N  0.19720959  0.14963438  0.40934865    -0.87980
H441        H  0.22797442  0.16687801  0.30621862     0.36110
H442        H  0.23836180  0.12954882  0.31223856     0.41210
H443        H  0.20702543  0.15290519  0.42328007     0.40830
H444        H  0.19126099  0.12570102  0.41209968     0.35720
C445        C  0.19980656  0.43323105  0.37070353    -0.26010
C446        C  0.20939039  0.43504876  0.34878713    -0.14090
C447        C  0.21832553  0.40602100  0.33969041     0.36540
C448        C  0.21696189  0.37553560  0.35253679    -0.25460
C449        C  0.20705264  0.37334556  0.37431785    -0.14700
C450        C  0.19851402  0.40274350  0.38366791     0.37630
N451        N  0.18851954  0.40172405  0.40616244    -0.88950
H452        H  0.19297088  0.45562139  0.37748132     0.18740
H453        H  0.22381693  0.35340250  0.34540045     0.18730
N454        N  0.22940743  0.40666875  0.31811328    -0.87980
H455        H  0.18236468  0.42507297  0.40964867     0.36110
H456        H  0.19806115  0.39797323  0.42030725     0.41210
H457        H  0.23117406  0.43113541  0.31125061     0.40830
H458        H  0.22262175  0.39221029  0.30467283     0.35720
C459        C  0.04781866  0.38292275  0.34899566    -0.26010
C460        C  0.03877242  0.38188784  0.37154025    -0.14090
C461        C  0.02921133  0.41079977  0.37941350     0.36540
C462        C  0.02961861  0.44049770  0.36513532    -0.25460
C463        C  0.03928944  0.44195407  0.34304998    -0.14700
C464        C  0.04843543  0.41267715  0.33486640     0.37630
N465        N  0.05909218  0.41363571  0.31292767    -0.88950
H466        H  0.05526852  0.36085560  0.34290753     0.18740
H467        H  0.02255993  0.46285866  0.37149485     0.18730
N468        N  0.01918788  0.40999045  0.40185852    -0.87980
H469        H  0.06471892  0.38986396  0.30931820     0.36110
H470        H  0.07020398  0.43019422  0.31605292     0.41210
H471        H  0.00850035  0.39225077  0.39969593     0.40830
H472        H  0.01302664  0.43339653  0.40511082     0.35720
C473        C  0.03258162  0.14565012  0.35769250    -0.26010
C474        C  0.04943897  0.12898807  0.35565958    -0.14090
C475        C  0.06553842  0.14412418  0.36554225     0.36540
C476        C  0.06447835  0.17613147  0.37656193    -0.25460
C477        C  0.04771623  0.19333846  0.37791412    -0.14700
C478        C  0.03154696  0.17764203  0.36850895     0.37630
N479        N  0.01387780  0.19316938  0.36986249    -0.88950
H480        H  0.02014086  0.13422153  0.35012682     0.18740
H481        H  0.07689896  0.18783598  0.38395251     0.18730
N482        N  0.08287348  0.12704032  0.36437429    -0.87980
H483        H  0.01408014  0.21560748  0.35974571     0.36110
H484        H  0.01115596  0.19873947  0.38813627     0.41210
H485        H  0.08184974  0.10513367  0.37502409     0.40830
H486        H  0.09337495  0.14193665  0.37220373     0.35720
C487        C  0.13779154  0.00478211  0.30465091    -0.26010
C488        C  0.14738816  0.03258078  0.29473355    -0.14090
C489        C  0.13720822  0.05926044  0.28374138     0.36540
C490        C  0.11788390  0.05715969  0.28330183    -0.25460
C491        C  0.10852131  0.03028779  0.29461360    -0.14700
C492        C  0.11855782  0.00346632  0.30487591     0.37630
N493        N  0.10914886  0.47517372  0.31582658    -0.88950
H494        H  0.14540409  0.48409329  0.31281331     0.18740
H495        H  0.11012077  0.07799334  0.27563932     0.18730
N496        N  0.14557855  0.08960354  0.27417311    -0.87980
H497        H  0.11853685  0.45765125  0.32277455     0.36110
H498        H  0.10166614  0.46269633  0.30200114     0.41210
H499        H  0.15976691  0.09028416  0.27702535     0.40830
H500        H  0.14056732  0.11013596  0.28404151     0.35720
C501        C  0.24551619  0.36713168  0.50297810    -0.26010
C502        C  0.26297713  0.37750170  0.49493565    -0.14090
C503        C  0.26958933  0.36378855  0.47283219     0.36540
C504        C  0.25880126  0.33990952  0.45972333    -0.25460
C505        C  0.24138757  0.32938361  0.46783095    -0.14700
C506        C  0.23471286  0.34326626  0.48984141     0.37630
N507        N  0.21694716  0.33346225  0.49878228    -0.88950
H508        H  0.24036499  0.37712419  0.51999284     0.18740
H509        H  0.26396938  0.32990676  0.44271968     0.18730
N510        N  0.28727627  0.37382826  0.46374448    -0.87980
H511        H  0.21382385  0.34701578  0.51461467     0.36110
H512        H  0.21765886  0.30795106  0.50386637     0.41210
H513        H  0.28649707  0.39942304  0.45889913     0.40830
H514        H  0.29031645  0.36054920  0.44776106     0.35720
C515        C  0.38932870  0.44944808  0.53049963    -0.26010
C516        C  0.39781766  0.42061053  0.54034374    -0.14090
C517        C  0.38678483  0.39270519  0.54755843     0.36540
C518        C  0.36766189  0.39572056  0.54690563    -0.25460
C519        C  0.35908706  0.42526523  0.53846159    -0.14700
C520        C  0.37010641  0.45246374  0.52973358     0.37630
N521        N  0.36260228  0.98407956  0.52137202    -0.88950
H522        H  0.39771438  0.47087420  0.52487213     0.18740
H523        H  0.35934832  0.37456782  0.55321811     0.18730
N524        N  0.39438181  0.36099372  0.55561262    -0.87980
H525        H  0.36760309  0.00324270  0.53300835     0.36110
H526        H  0.34836817  0.98467423  0.52273014     0.41210
H527        H  0.40852815  0.36019367  0.55294141     0.40830
H528        H  0.38892720  0.34190165  0.54427636     0.35720
C529        C  0.30961726  0.04210111  0.58618822    -0.26010
C530        C  0.29277316  0.02484516  0.58301128    -0.14090
C531        C  0.27692731  0.03800315  0.59438448     0.36540
C532        C  0.27862369  0.06712772  0.60926863    -0.25460
C533        C  0.29565484  0.08347968  0.61314790    -0.14700
C534        C  0.31132244  0.07100597  0.60105895     0.37630
N535        N  0.32908439  0.08729366  0.60279298    -0.88950
H536        H  0.32181732  0.03246431  0.57748883     0.18740
H537        H  0.26650876  0.07694724  0.61804746     0.18730
N538        N  0.25894643  0.02305458  0.59106661    -0.87980
H539        H  0.33794013  0.07077075  0.61194494     0.36110
H540        H  0.32883851  0.10977079  0.61286034     0.41210
H541        H  0.25903637  0.00328165  0.57838617     0.40830
H542        H  0.25046872  0.04156023  0.58339853     0.35720
C543        C  0.31001386  0.29957461  0.62619449    -0.26010
C544        C  0.29927238  0.27219221  0.61733947    -0.14090
C545        C  0.28812239  0.27699554  0.59626910     0.36540
C546        C  0.28826029  0.30837387  0.58453632    -0.25460
C547        C  0.29920300  0.33541331  0.59318937    -0.14700
C548        C  0.31030031  0.33097248  0.61431385     0.37630
N549        N  0.32281795  0.35662782  0.62346342    -0.88950
H550        H  0.31878554  0.29634535  0.64214600     0.18740
H551        H  0.27974120  0.31164553  0.56833409     0.18730
N552        N  0.27637140  0.25085946  0.58638481    -0.87980
H553        H  0.31805242  0.36461343  0.64045862     0.36110
H554        H  0.32342052  0.37785888  0.61221895     0.41210
H555        H  0.26738472  0.24270622  0.59996493     0.40830
H556        H  0.28442951  0.23060340  0.58068673     0.35720
C557        C  0.47231898  0.27459384  0.60356744    -0.26010
C558        C  0.46987455  0.27616497  0.62903590    -0.14090
C559        C  0.46757733  0.30833227  0.64007224     0.36540
C560        C  0.46720273  0.33762040  0.62537112    -0.25460
C561        C  0.46862611  0.33573808  0.59978446    -0.14700
C562        C  0.47171265  0.30383525  0.58887162     0.37630
N563        N  0.47395685  0.30102440  0.56289601    -0.88950
H564        H  0.47425977  0.25020417  0.59485703     0.18740
H565        H  0.46494820  0.36199814  0.63395961     0.18730
N566        N  0.46518205  0.31133165  0.66601183    -0.87980
H567        H  0.47567992  0.27570102  0.55773722     0.36110
H568        H  0.48613658  0.31377416  0.55848108     0.41210
H569        H  0.45221453  0.30131320  0.67003694     0.40830
H570        H  0.46490541  0.33684662  0.67127931     0.35720
C571        C  0.45481236  0.05603213  0.63693518    -0.26010
C572        C  0.45895575  0.08600379  0.62427566    -0.14090
C573        C  0.46242825  0.08453875  0.59899190     0.36540
C574        C  0.46170681  0.05300305  0.58701179    -0.25460
C575        C  0.45768144  0.02298766  0.59975087    -0.14700
C576        C  0.45426926  0.02468278  0.62509513     0.37630
N577        N  0.44979275  0.49529797  0.63926823    -0.88950
H578        H  0.45212653  0.05684377  0.65635682     0.18740
H579        H  0.46435555  0.05185808  0.56759534     0.18730
N580        N  0.46639170  0.11494397  0.58549685    -0.87980
H581        H  0.46095695  0.47885081  0.63924404     0.36110
H582        H  0.43833352  0.48317417  0.63135265     0.41210
H583        H  0.45458862  0.12984083  0.58561556     0.40830
H584        H  0.46893977  0.10924810  0.56719331     0.35720
C585        C  0.39138535  0.20988819  0.66119373    -0.26010
C586        C  0.40053184  0.18413267  0.67387289    -0.14090
C587        C  0.39008932  0.15851080  0.68561643     0.36540
C588        C  0.37081524  0.15911490  0.68378103    -0.25460
C589        C  0.36167807  0.18426771  0.67031214    -0.14700
C590        C  0.37216355  0.21102808  0.65988577     0.37630
N591        N  0.36394928  0.23990385  0.64812656    -0.88950
H592        H  0.39931681  0.22968967  0.65234577     0.18740
H593        H  0.36295115  0.13871758  0.69200331     0.18730
N594        N  0.39838876  0.13068744  0.69848094    -0.87980
H595        H  0.36941100  0.26172210  0.65651141     0.36110
H596        H  0.34992002  0.24113977  0.65152459     0.41210
H597        H  0.41268912  0.13202348  0.69828787     0.40830
H598        H  0.39469105  0.10833612  0.68923121     0.35720
C599        C  0.27505569  0.46600159  0.24149065    -0.26010
C600        C  0.26787551  0.43596959  0.23094843    -0.14090
C601        C  0.24911510  0.42790293  0.23422177     0.36540
C602        C  0.23801484  0.45019046  0.24756584    -0.25460
C603        C  0.24511336  0.48048271  0.25777484    -0.14700
C604        C  0.26393965  0.48827688  0.25489014     0.37630
N605        N  0.27159314  0.01929849  0.26473880    -0.88950
H606        H  0.28937517  0.47258885  0.23876266     0.18740
H607        H  0.22369289  0.44359218  0.25027935     0.18730
N608        N  0.24145924  0.39674102  0.22465469    -0.87980
H609        H  0.28520797  0.02249807  0.25924395     0.36110
H610        H  0.27209860  0.01687220  0.28373217     0.41210
H611        H  0.24039867  0.39924218  0.20570087     0.40830
H612        H  0.22803303  0.39311941  0.23078546     0.35720
C613        C  0.39430713  0.37772400  0.19892583    -0.26010
C614        C  0.40181929  0.40601798  0.18683917    -0.14090
C615        C  0.38995867  0.43120141  0.17758720     0.36540
C616        C  0.37099791  0.42587017  0.17851115    -0.25460
C617        C  0.36336060  0.39651896  0.18897106    -0.14700
C618        C  0.37509677  0.37260546  0.20001309     0.37630
N619        N  0.36760687  0.34256574  0.21108920    -0.88950
H620        H  0.40343107  0.35848688  0.20607271     0.18740
H621        H  0.36209665  0.44491573  0.17059140     0.18730
N622        N  0.39658493  0.46224761  0.16684140    -0.87980
H623        H  0.37812469  0.32771257  0.21843485     0.36110
H624        H  0.36129704  0.32807429  0.19726342     0.41210
H625        H  0.41079402  0.46493560  0.16887052     0.40830
H626        H  0.39108189  0.48236845  0.17675928     0.35720
C627        C  0.30647865  0.26163411  0.10009560    -0.26010
C628        C  0.29714708  0.23292702  0.10892229    -0.14090
C629        C  0.28801993  0.23521251  0.13154034     0.36540
C630        C  0.28890043  0.26579387  0.14504492    -0.25460
C631        C  0.29843119  0.29435081  0.13627216    -0.14700
C632        C  0.30741406  0.29206940  0.11355610     0.37630
N633        N  0.31801032  0.32029610  0.10455577    -0.88950
H634        H  0.31368624  0.25997937  0.08294283     0.18740
H635        H  0.28193100  0.26747606  0.16236934     0.18730
N636        N  0.27775756  0.20666519  0.14063288    -0.87980
H637        H  0.32360852  0.31459693  0.08755254     0.36110
H638        H  0.32912062  0.32413174  0.11658186     0.41210
H639        H  0.26678409  0.20215637  0.12850297     0.40830
H640        H  0.27197961  0.21243298  0.15751371     0.35720
C641        C  0.28563129  0.02760900  0.11356813    -0.26010
C642        C  0.30244234  0.04482566  0.11042461    -0.14090
C643        C  0.31874199  0.03054962  0.12003196     0.36540
C644        C  0.31787588  0.99979002  0.13240067    -0.25460
C645        C  0.30117675  0.48220842  0.13527191    -0.14700
C646        C  0.28482392  0.49631619  0.12586506     0.37630
N647        N  0.26747444  0.47925239  0.12910048    -0.88950
H648        H  0.27311778  0.03843345  0.10619656     0.18740
H649        H  0.33055475  0.48926241  0.13962275     0.18730
N650        N  0.33634544  0.04692349  0.11812236    -0.87980
H651        H  0.25686888  0.49282328  0.12072556     0.36110
H652        H  0.26473832  0.47913327  0.14780306     0.41210
H653        H  0.33549328  0.07147819  0.12527403     0.40830
H654        H  0.33999346  0.04811628  0.09975292     0.35720
C655        C  0.46642167  0.02914802  0.08612847    -0.26010
C656        C  0.46948036  0.06014135  0.09826058    -0.14090
C657        C  0.47273379  0.05984956  0.12382594     0.36540
C658        C  0.47189584  0.02892382  0.13667122    -0.25460
C659        C  0.46803947  0.99806306  0.12466798    -0.14700
C660        C  0.46546744  0.49826860  0.09893440     0.37630
N661        N  0.46129637  0.46741618  0.08580349    -0.88950
H662        H  0.46391232  0.02908489  0.06658275     0.18740
H663        H  0.47409279  0.02902695  0.15627648     0.18730
N664        N  0.47668163  0.09091199  0.13678325    -0.87980
H665        H  0.46071395  0.47180778  0.06698518     0.36110
H666        H  0.44808782  0.45960186  0.09076434     0.41210
H667        H  0.48932504  0.10012902  0.13063638     0.40830
H668        H  0.47833607  0.08637484  0.15548475     0.35720
C669        C  0.44338011  0.29607125  0.11558928    -0.26010
C670        C  0.46009555  0.30983945  0.12422612    -0.14090
C671        C  0.47651730  0.29154782  0.12105788     0.36540
C672        C  0.47575856  0.25985447  0.10935697    -0.25460
C673        C  0.45909205  0.24655587  0.10029874    -0.14700
C674        C  0.44268380  0.26464978  0.10361550     0.37630
N675        N  0.42536554  0.25093244  0.09506431    -0.88950
H676        H  0.43076066  0.30991461  0.11816712     0.18740
H677        H  0.48833034  0.24589942  0.10667250     0.18730
N678        N  0.49381747  0.30470671  0.13009472    -0.87980
H679        H  0.41467422  0.26763888  0.09873816     0.36110
H680        H  0.42268691  0.22885955  0.10501883     0.41210
H681        H  0.49742013  0.32533361  0.11912054     0.40830
H682        H  0.50420019  0.28685361  0.12789618     0.35720
C683        C  0.39144215  0.11674090  0.04449145    -0.26010
C684        C  0.40015985  0.14859975  0.04545363    -0.14090
C685        C  0.38931820  0.17822091  0.04682139     0.36540
C686        C  0.37018790  0.17504511  0.04848785    -0.25460
C687        C  0.36155797  0.14312903  0.04910643    -0.14700
C688        C  0.37228116  0.11352886  0.04631512     0.37630
N689        N  0.36435099  0.07991973  0.04554639    -0.88950
H690        H  0.39965045  0.09399406  0.04345263     0.18740
H691        H  0.36205189  0.19778091  0.05033476     0.18730
N692        N  0.39714042  0.21188133  0.04648584    -0.87980
H693        H  0.36780578  0.06904789  0.02879955     0.36110
H694        H  0.35003321  0.08045489  0.04563703     0.41210
H695        H  0.41116537  0.21178502  0.04282065     0.40830
H696        H  0.39546669  0.22252947  0.06382009     0.35720
C697        C  0.27471645  0.08240248  0.98954893    -0.26010
C698        C  0.26676668  0.09730309  0.01019155    -0.14090
C699        C  0.24761260  0.09380462  0.01333165     0.36540
C700        C  0.23694898  0.07558004  0.99609636    -0.25460
C701        C  0.24485335  0.06079939  0.97536060    -0.14700
C702        C  0.26404642  0.06452620  0.97203590     0.37630
N703        N  0.27277196  0.05005403  0.95107792    -0.88950
H704        H  0.28941205  0.08467298  0.98698428     0.18740
H705        H  0.22226387  0.07349177  0.99886430     0.18730
N706        N  0.23882252  0.10867161  0.03396933    -0.87980
H707        H  0.28705765  0.05264538  0.95252381     0.36110
H708        H  0.26885545  0.06439746  0.93588498     0.41210
H709        H  0.23218106  0.08931416  0.04358023     0.40830
H710        H  0.22882648  0.12539405  0.02751532     0.35720
C711        C  0.13823326  0.50111149  0.90979669    -0.26010
C712        C  0.14810205  0.02055449  0.92680785    -0.14090
C713        C  0.13857380  0.04195909  0.94310478     0.36540
C714        C  0.11932059  0.04356472  0.94145971    -0.25460
C715        C  0.10934400  0.02513947  0.92361448    -0.14700
C716        C  0.11907457  0.50319876  0.90783137     0.37630
N717        N  0.10948286  0.48318723  0.88962593    -0.88950
H718        H  0.14553552  0.48479445  0.89732434     0.18740
H719        H  0.11218254  0.06043207  0.95369896     0.18730
N720        N  0.14776886  0.06401918  0.96040338    -0.87980
H721        H  0.11834754  0.46598456  0.88139788     0.36110
H722        H  0.10532719  0.49972353  0.87576980     0.41210
H723        H  0.16204342  0.06316769  0.95902462     0.40830
H724        H  0.14444107  0.05567104  0.97788411     0.35720
C725        C  0.23582712  0.23085405  0.72834103    -0.26010
C726        C  0.24322928  0.23743351  0.75174919    -0.14090
C727        C  0.26152674  0.22746346  0.75686468     0.36540
C728        C  0.27180431  0.21133034  0.73861673    -0.25460
C729        C  0.26445826  0.20508436  0.71514649    -0.14700
C730        C  0.24611220  0.21474532  0.71009723     0.37630
N731        N  0.23790640  0.20829384  0.68648977    -0.88950
H732        H  0.22177291  0.23789014  0.72427129     0.18740
H733        H  0.28586935  0.20432546  0.74265082     0.18730
N734        N  0.26970339  0.23360239  0.78052816    -0.87980
H735        H  0.22455809  0.21780156  0.68557167     0.36110
H736        H  0.23669807  0.18197734  0.68440363     0.41210
H737        H  0.27128875  0.25986460  0.78256307     0.40830
H738        H  0.28291080  0.22347670  0.78156443     0.35720
C739        C  0.20925529  0.36340055  0.87642855    -0.26010
C740        C  0.21511715  0.36397147  0.85203682    -0.14090
C741        C  0.22167010  0.39486917  0.84227173     0.36540
C742        C  0.22149765  0.42454026  0.85672018    -0.25460
C743        C  0.21497930  0.42426348  0.88083976    -0.14700
C744        C  0.20888016  0.39308652  0.89080838     0.37630
N745        N  0.20176733  0.39164994  0.91517333    -0.88950
H746        H  0.20417790  0.33983080  0.88408519     0.18740
H747        H  0.22632510  0.44818812  0.84891882     0.18730
N748        N  0.22843090  0.39614307  0.81773391    -0.87980
H749        H  0.19851579  0.36665447  0.91997465     0.36110
H750        H  0.18937996  0.40485691  0.91515450     0.41210
H751        H  0.24025589  0.38133390  0.81715761     0.40830
H752        H  0.23249330  0.42084857  0.81322487     0.35720
C753        C  0.20207659  0.17620608  0.87308004    -0.26010
C754        C  0.21210508  0.17787714  0.85147159    -0.14090
C755        C  0.22173242  0.14905611  0.84335592     0.36540
C756        C  0.22061744  0.11898562  0.85679874    -0.25460
C757        C  0.21024670  0.11694406  0.87822384    -0.14700
C758        C  0.20100805  0.14613282  0.88661034     0.37630
N759        N  0.19047904  0.14527492  0.90866467    -0.88950
H760        H  0.19466210  0.19835430  0.87913889     0.18740
H761        H  0.22797570  0.09700677  0.85035201     0.18730
N762        N  0.23325232  0.14952408  0.82220458    -0.87980
H763        H  0.18392740  0.16841635  0.91151527     0.36110
H764        H  0.19971913  0.14234524  0.92326276     0.41210
H765        H  0.23478714  0.17382781  0.81496815     0.40830
H766        H  0.22696435  0.13424667  0.80881445     0.35720
C767        C  0.03129976  0.16038416  0.84088745    -0.26010
C768        C  0.03795931  0.19042738  0.85179776    -0.14090
C769        C  0.04360536  0.18980513  0.87666261     0.36540
C770        C  0.04302431  0.15914164  0.88961048    -0.25460
C771        C  0.03726535  0.12873230  0.87841105    -0.14700
C772        C  0.03070008  0.12961809  0.85393709     0.37630
N773        N  0.02388540  0.09928230  0.84214912    -0.88950
H774        H  0.02674539  0.16080261  0.82197632     0.18740
H775        H  0.04793909  0.15881391  0.90836603     0.18730
N776        N  0.05071787  0.21989802  0.88852116    -0.87980
H777        H  0.02019015  0.10414394  0.82398690     0.36110
H778        H  0.01180408  0.09205775  0.85096633     0.41210
H779        H  0.06330327  0.22587322  0.88049573     0.40830
H780        H  0.05357939  0.21533027  0.90697680     0.35720
C781        C  0.05624717  0.40443747  0.84157777    -0.26010
C782        C  0.04643643  0.37669669  0.85111778    -0.14090
C783        C  0.03592985  0.38106513  0.87241649     0.36540
C784        C  0.03600203  0.41281089  0.88402029    -0.25460
C785        C  0.04591248  0.44035465  0.87450870    -0.14700
C786        C  0.05613953  0.43620541  0.85303675     0.37630
N787        N  0.06680352  0.46386588  0.84332162    -0.88950
H788        H  0.06421505  0.40132620  0.82515296     0.18740
H789        H  0.02815681  0.41615364  0.90053383     0.18730
N790        N  0.02548758  0.35337433  0.88247510    -0.87980
H791        H  0.07326335  0.45662132  0.82720033     0.36110
H792        H  0.07729170  0.46949369  0.85595333     0.41210
H793        H  0.01447595  0.34840189  0.87050541     0.40830
H794        H  0.01964669  0.36041971  0.89906369     0.35720
C795        C  0.11601164  0.24606951  0.81413221    -0.26010
C796        C  0.10711038  0.26922850  0.79888595    -0.14090
C797        C  0.11766156  0.29045154  0.78350418     0.36540
C798        C  0.13692748  0.28853996  0.78448194    -0.25460
C799        C  0.14596917  0.26620144  0.80052006    -0.14700
C800        C  0.13513321  0.24412094  0.81511917     0.37630
N801        N  0.14294124  0.21974721  0.83149699    -0.88950
H802        H  0.10797372  0.22981998  0.82597739     0.18740
H803        H  0.14487399  0.30557941  0.77313918     0.18730
N804        N  0.10951862  0.31548496  0.76778870    -0.87980
H805        H  0.15061755  0.23241988  0.84502351     0.36110
H806        H  0.15134997  0.20344827  0.82164157     0.41210
H807        H  0.09523630  0.31563778  0.76901685     0.40830
H808        H  0.11255306  0.30888494  0.74978759     0.35720
C809        C  0.51590551  0.25004639  0.99376065    -0.26010
C810        C  0.51567209  0.24092069  0.96897280    -0.14090
C811        C  0.50516947  0.21209495  0.96148471     0.36540
C812        C  0.49521071  0.19338698  0.97889333    -0.25460
C813        C  0.49554098  0.20241518  0.00368965    -0.14700
C814        C  0.50599222  0.23127830  0.01116895     0.37630
N815        N  0.50606374  0.24224470  0.03624753    -0.88950
H816        H  0.52393684  0.27196065  0.99963977     0.18740
H817        H  0.48718942  0.17143918  0.97305525     0.18730
N818        N  0.50511093  0.20105847  0.93642276    -0.87980
H819        H  0.51303297  0.26544978  0.03822086     0.36110
H820        H  0.51364876  0.22466103  0.04633000     0.41210
H821        H  0.49765635  0.21876927  0.92628158     0.40830
H822        H  0.49803226  0.17796754  0.93443670     0.35720
C823        C  0.61997050  0.25211976  0.92986659    -0.26010
C824        C  0.61240624  0.28473819  0.93103233    -0.14090
C825        C  0.62426103  0.31329877  0.93301435     0.36540
C826        C  0.64330783  0.30837484  0.93300055    -0.25460
C827        C  0.65087417  0.27585005  0.93091070    -0.14700
C828        C  0.63901718  0.24719322  0.92981636     0.37630
N829        N  0.64556024  0.21312711  0.92686320    -0.88950
H830        H  0.61092514  0.23019681  0.92794690     0.18740
H831        H  0.65234490  0.33043243  0.93358171     0.18730
N832        N  0.61766328  0.34756659  0.93379818    -0.87980
H833        H  0.64178522  0.19940744  0.94236270     0.36110
H834        H  0.65983426  0.21220980  0.92594514     0.41210
H835        H  0.60336077  0.34850567  0.93341403     0.40830
H836        H  0.62214841  0.35986089  0.91801765     0.35720
C837        C  0.70774167  0.14863586  0.83628033    -0.26010
C838        C  0.71903828  0.12209300  0.84410718    -0.14090
C839        C  0.73036257  0.12717337  0.86509690     0.36540
C840        C  0.72950899  0.15782365  0.87814589    -0.25460
C841        C  0.71762774  0.18385484  0.87080965    -0.14700
C842        C  0.70685408  0.17931637  0.84928002     0.37630
N843        N  0.69432755  0.20509423  0.84123278    -0.88950
H844        H  0.69895682  0.14500852  0.82033920     0.18740
H845        H  0.73804786  0.16111402  0.89435484     0.18730
N846        N  0.74297136  0.10198451  0.87353280    -0.87980
H847        H  0.68617304  0.19633551  0.82662355     0.36110
H848        H  0.70220372  0.22514671  0.83434990     0.41210
H849        H  0.75149605  0.09532340  0.85909348     0.40830
H850        H  0.73558412  0.08059539  0.87915265     0.35720
C851        C  0.71232933  0.36897664  0.84951386    -0.26010
C852        C  0.71123858  0.36928308  0.87504144    -0.14090
C853        C  0.71029299  0.40048480  0.88759924     0.36540
C854        C  0.70992711  0.43075821  0.87440277    -0.25460
C855        C  0.71036081  0.43044898  0.84883820    -0.14700
C856        C  0.71191318  0.39930091  0.83621026     0.37630
N857        N  0.71319975  0.39855964  0.81002161    -0.88950
H858        H  0.71321302  0.34499366  0.83988796     0.18740
H859        H  0.70895255  0.45458115  0.88422224     0.18730
N860        N  0.70990840  0.40160953  0.91375319    -0.87980
H861        H  0.71404039  0.37358635  0.80365801     0.36110
H862        H  0.72553287  0.41061303  0.80536760     0.41210
H863        H  0.69794038  0.41402102  0.91895202     0.40830
H864        H  0.72118357  0.41604802  0.91992365     0.35720
C865        C  0.52377365  0.10053175  0.73144552    -0.26010
C866        C  0.51583078  0.09017949  0.75353952    -0.14090
C867        C  0.49835602  0.10311044  0.75963439     0.36540
C868        C  0.48930929  0.12538246  0.74350176    -0.25460
C869        C  0.49703686  0.13501921  0.72114659    -0.14700
C870        C  0.51468175  0.12279369  0.71529341     0.37630
N871        N  0.52335202  0.13284281  0.69296006    -0.88950
H872        H  0.53728764  0.09146151  0.72678573     0.18740
H873        H  0.47578899  0.13442940  0.74815769     0.18730
N874        N  0.48976092  0.09378678  0.78218473    -0.87980
H875        H  0.53608576  0.12110865  0.69117945     0.36110
H876        H  0.52602787  0.15892563  0.69411223     0.41210
H877        H  0.48622606  0.06804797  0.78095677     0.40830
H878        H  0.47744878  0.10681075  0.78441084     0.35720
C879        C  0.54097745  0.41129579  0.83615758    -0.26010
C880        C  0.54079174  0.44257084  0.84851355    -0.14090
C881        C  0.54072194  0.44246860  0.87444285     0.36540
C882        C  0.54133832  0.41142630  0.88712595    -0.25460
C883        C  0.54232231  0.38024593  0.87477290    -0.14700
C884        C  0.54163239  0.38025511  0.84886806     0.37630
N885        N  0.54190821  0.34888013  0.83541520    -0.88950
H886        H  0.54089650  0.41100738  0.81637151     0.18740
H887        H  0.54175044  0.41175444  0.90690959     0.18730
N888        N  0.54059434  0.47377806  0.88799689    -0.87980
H889        H  0.54200370  0.35341473  0.81660941     0.36110
H890        H  0.52961230  0.33594364  0.83894231     0.41210
H891        H  0.55338642  0.98558357  0.88568276     0.40830
H892        H  0.53946421  0.46913111  0.90671421     0.35720
C893        C  0.53586561  0.18089303  0.86695769    -0.26010
C894        C  0.55293419  0.19317115  0.87546559    -0.14090
C895        C  0.56893256  0.17362503  0.87200560     0.36540
C896        C  0.56720639  0.14185256  0.86081963    -0.25460
C897        C  0.55012991  0.12947324  0.85240953    -0.14700
C898        C  0.53423804  0.14909294  0.85556139     0.37630
N899        N  0.51666460  0.13731096  0.84650730    -0.88950
H900        H  0.52366633  0.19592668  0.86967826     0.18740
H901        H  0.57948234  0.12699768  0.85814699     0.18730
N902        N  0.58712871  0.18528811  0.87878176    -0.87980
H903        H  0.50669540  0.15591628  0.84884609     0.36110
H904        H  0.51264067  0.11680095  0.85733351     0.41210
H905        H  0.58726869  0.21059053  0.88430915     0.40830
H906        H  0.59513648  0.18485393  0.86305952     0.35720
C907        C  0.61908187  0.05028078  0.81988836    -0.26010
C908        C  0.60911929  0.03404882  0.80094197    -0.14090
C909        C  0.61882752  0.01851846  0.78175703     0.36540
C910        C  0.63821936  0.01918424  0.78228854    -0.25460
C911        C  0.64798692  0.03430910  0.80182533    -0.14700
C912        C  0.63830238  0.05064400  0.82052916     0.37630
N913        N  0.64803772  0.06771460  0.84011198    -0.88950
H914        H  0.61185100  0.06285037  0.83447149     0.18740
H915        H  0.64572090  0.50663366  0.76793292     0.18730
N916        N  0.60909689  0.50158627  0.76214470    -0.87980
H917        H  0.63887313  0.07819001  0.85253243     0.36110
H918        H  0.65533033  0.08803143  0.83252667     0.41210
H919        H  0.60243955  0.48040196  0.76952734     0.40830
H920        H  0.61830146  0.49228797  0.74929738     0.35720
C921        C  0.00596254  0.23867068  0.51474204    -0.26010
C922        C  0.99293362  0.21387737  0.50751005    -0.14090
C923        C  0.98969449  0.20823569  0.48235265     0.36540
C924        C  0.99948328  0.22747559  0.46511971    -0.25460
C925        C  0.01256043  0.25227685  0.47231827    -0.14700
C926        C  0.01565245  0.25812237  0.49752830     0.37630
N927        N  0.02852003  0.28380451  0.50566782    -0.88950
H928        H  0.00824911  0.24365016  0.53401957     0.18740
H929        H  0.99711931  0.22246254  0.44586619     0.18730
N930        N  0.97664491  0.18279642  0.47432650    -0.87980
H931        H  0.02944522  0.28433105  0.52473816     0.36110
H932        H  0.02328839  0.30729957  0.50034041     0.41210
H933        H  0.98165885  0.15921598  0.47982965     0.40830
H934        H  0.97574061  0.18210005  0.45525775     0.35720
C935        C  0.86965727  0.18688038  0.53276392    -0.26010
C936        C  0.85969927  0.17695688  0.55344540    -0.14090
C937        C  0.86937748  0.16767111  0.57496658     0.36540
C938        C  0.88858747  0.16812388  0.57516935    -0.25460
C939        C  0.89857077  0.17779143  0.55458035    -0.14700
C940        C  0.88905234  0.18710821  0.53302017     0.37630
N941        N  0.89899581  0.19778220  0.51182192    -0.88950
H942        H  0.86230278  0.19409843  0.51628860     0.18740
H943        H  0.89586964  0.16093553  0.59172321     0.18730
N944        N  0.85974529  0.15830144  0.59677745    -0.87980
H945        H  0.88991073  0.20564017  0.49806860     0.36110
H946        H  0.90569773  0.17654893  0.50492035     0.41210
H947        H  0.85307947  0.17992649  0.60312187     0.40830
H948        H  0.86892085  0.15113644  0.61062945     0.35720
C949        C  0.77212169  0.45892057  0.74129575    -0.26010
C950        C  0.76473126  0.45182107  0.71800910    -0.14090
C951        C  0.74643914  0.46101240  0.71273361     0.36540
C952        C  0.73616925  0.47801336  0.73036210    -0.25460
C953        C  0.74365925  0.48596926  0.75348478    -0.14700
C954        C  0.76180498  0.47560016  0.75916072     0.37630
N955        N  0.76979916  0.48198589  0.78290569    -0.88950
H956        H  0.78617341  0.45198109  0.74549668     0.18740
H957        H  0.72216718  0.48492321  0.72583011     0.18730
N958        N  0.73814681  0.45309665  0.68951543    -0.87980
H959        H  0.78353861  0.47450214  0.78350264     0.36110
H960        H  0.76289743  0.46648114  0.79533830     0.41210
H961        H  0.73389794  0.47577542  0.68146458     0.40830
H962        H  0.72647460  0.43806046  0.69252805     0.35720
C963        C  0.78633414  0.32900880  0.59858901    -0.26010
C964        C  0.79195588  0.32805219  0.62328801    -0.14090
C965        C  0.79569973  0.29627267  0.63409176     0.36540
C966        C  0.79396797  0.26656586  0.61994216    -0.25460
C967        C  0.78919173  0.26771954  0.59500506    -0.14700
C968        C  0.78493627  0.29925124  0.58434555     0.37630
N969        N  0.77935136  0.30102352  0.55911279    -0.88950
H970        H  0.78327440  0.35318957  0.59018793     0.18740
H971        H  0.79738834  0.24244352  0.62819020     0.18730
N972        N  0.80195329  0.29418096  0.65905927    -0.87980
H973        H  0.77687148  0.32614056  0.55404200     0.36110
H974        H  0.76682063  0.28797774  0.55730393     0.41210
H975        H  0.81507589  0.30521241  0.66002041     0.40830
H976        H  0.80349576  0.26888020  0.66434031     0.35720
C977        C  0.80555643  0.08050425  0.61992873    -0.26010
C978        C  0.79626355  0.08140836  0.59742068    -0.14090
C979        C  0.78829849  0.05151255  0.58764671     0.36540
C980        C  0.79023458  0.02095459  0.60040211    -0.25460
C981        C  0.80005190  0.01963630  0.62263754    -0.14700
C982        C  0.80784070  0.04988443  0.63251544     0.37630
N983        N  0.81819658  0.04957376  0.65506036    -0.88950
H984        H  0.81180431  0.10356173  0.62718882     0.18740
H985        H  0.78407777  0.99802872  0.59283060     0.18730
N986        N  0.77825181  0.05233260  0.56486353    -0.87980
H987        H  0.82207443  0.07420447  0.66026466     0.36110
H988        H  0.83040653  0.03666050  0.65179967     0.41210
H989        H  0.76671014  0.06746742  0.56739652     0.40830
H990        H  0.77334792  0.02811724  0.56016396     0.35720
C991        C  0.01226004  0.38350653  0.72999124    -0.26010
C992        C  0.99301602  0.38233393  0.73104272    -0.14090
C993        C  0.98450755  0.35749386  0.74589712     0.36540
C994        C  0.99544236  0.33422418  0.75886063    -0.25460
C995        C  0.01469425  0.33501730  0.75743101    -0.14700
C996        C  0.02318766  0.36028325  0.74292154     0.37630
N997        N  0.04287791  0.36294383  0.74170674    -0.88950
H998        H  0.01886225  0.40232513  0.71857562     0.18740
H999        H  0.98884860  0.31534801  0.77023579     0.18730
N1000       N  0.96481510  0.35506280  0.74716317    -0.87980
H1001       H  0.04683045  0.38437582  0.73177067     0.36110
H1002       H  0.04746112  0.34199236  0.73183810     0.41210
H1003       H  0.96027209  0.37658305  0.75641473     0.40830
H1004       H  0.96082516  0.33420533  0.75768302     0.35720
C1005       C  0.98279126  0.06867325  0.61238721    -0.26010
C1006       C  0.96581640  0.08258999  0.60545976    -0.14090
C1007       C  0.94943973  0.06776102  0.61427852     0.36540
C1008       C  0.95036038  0.03916814  0.62947118    -0.25460
C1009       C  0.96722774  0.02450548  0.63578315    -0.14700
C1010       C  0.98365742  0.03925097  0.62705482     0.37630
N1011       N  0.00111392  0.02498242  0.63363707    -0.88950
H1012       H  0.99535411  0.08037144  0.60592393     0.18740
H1013       H  0.93774525  0.02777362  0.63606397     0.18730
N1014       N  0.93190113  0.08214694  0.60810646    -0.87980
H1015       H  0.01183332  0.03985977  0.62675489     0.36110
H1016       H  0.00200121  0.00138298  0.62500504     0.41210
H1017       H  0.93144001  0.10630709  0.61600940     0.40830
H1018       H  0.92121769  0.06800008  0.61580547     0.35720
C1019       C  0.94944141  0.30839929  0.63958924    -0.26010
C1020       C  0.96167168  0.33416115  0.63209934    -0.14090
C1021       C  0.97360377  0.32762238  0.61245931     0.36540
C1022       C  0.97287125  0.29606948  0.60080146    -0.25460
C1023       C  0.96071341  0.27047186  0.60841756    -0.14700
C1024       C  0.94889959  0.27658020  0.62808669     0.37630
N1025       N  0.93585694  0.25113564  0.63563017    -0.88950
H1026       H  0.94013239  0.31305565  0.65449062     0.18740
H1027       H  0.98197803  0.29144419  0.58565637     0.18730
N1028       N  0.98671634  0.35212010  0.60401080    -0.87980
H1029       H  0.92727353  0.26070992  0.64912480     0.36110
H1030       H  0.94323976  0.23153291  0.64383875     0.41210
H1031       H  0.99543514  0.35899173  0.61855757     0.40830
H1032       H  0.97970922  0.37346600  0.59773980     0.35720
C1033       C  0.89053115  0.44915445  0.68924691    -0.26010
C1034       C  0.90070315  0.42426840  0.67720115    -0.14090
C1035       C  0.89139520  0.39691518  0.66551090     0.36540
C1036       C  0.87215394  0.39604683  0.66508490    -0.25460
C1037       C  0.86194109  0.42170574  0.67607971    -0.14700
C1038       C  0.87118573  0.44823303  0.68879222     0.37630
N1039       N  0.86100743  0.47503480  0.70002429    -0.88950
H1040       H  0.89769004  0.46994919  0.69836523     0.18740
H1041       H  0.86505285  0.37545440  0.65564225     0.18730
N1042       N  0.90143874  0.36975577  0.65444673    -0.87980
H1043       H  0.86992761  0.99363583  0.70716598     0.36110
H1044       H  0.85414680  0.46462598  0.71494057     0.41210
H1045       H  0.90682108  0.37889618  0.63810021     0.40830
H1046       H  0.89257306  0.34976792  0.64950935     0.35720
C1047       C  0.75004427  0.10928817  0.50823818    -0.26010
C1048       C  0.76546811  0.12712184  0.49952998    -0.14090
C1049       C  0.77147004  0.12059900  0.47554801     0.36540
C1050       C  0.76220047  0.09606092  0.46115696    -0.25460
C1051       C  0.74686721  0.07800323  0.46992443    -0.14700
C1052       C  0.74075859  0.08476056  0.49383730     0.37630
N1053       N  0.72524755  0.06664778  0.50355398    -0.88950
H1054       H  0.74551547  0.11366193  0.52674466     0.18740
H1055       H  0.76676553  0.09165530  0.44267206     0.18730
N1056       N  0.78691437  0.13887851  0.46579876    -0.87980
H1057       H  0.72234646  0.07510196  0.52119507     0.36110
H1058       H  0.72893607  0.04116964  0.50514807     0.41210
H1059       H  0.78321519  0.16438023  0.46445981     0.40830
H1060       H  0.78970911  0.13069622  0.44805946     0.35720
C1061       C  0.50902891  0.48120927  0.51033980    -0.26010
C1062       C  0.49710424  0.45424815  0.50373065    -0.14090
C1063       C  0.49678901  0.44286726  0.47912012     0.36540
C1064       C  0.50720479  0.46042082  0.46174728    -0.25460
C1065       C  0.51889998  0.48766312  0.46830053    -0.14700
C1066       C  0.51994211  0.49795005  0.49297945     0.37630
N1067       N  0.53172088  0.02577204  0.50030108    -0.88950
H1068       H  0.50936653  0.49017746  0.52906788     0.18740
H1069       H  0.50667083  0.45163175  0.44297147     0.18730
N1070       N  0.48649460  0.41339022  0.47108704    -0.87980
H1071       H  0.53105028  0.02981352  0.51914933     0.36110
H1072       H  0.52666783  0.04769070  0.49198493     0.41210
H1073       H  0.48262781  0.39846746  0.48587362     0.40830
H1074       H  0.49546146  0.39782744  0.46147611     0.35720
C1075       C  0.62439479  0.01500950  0.39579778    -0.26010
C1076       C  0.61496374  0.02395174  0.41707020    -0.14090
C1077       C  0.62515316  0.03091148  0.43871561     0.36540
C1078       C  0.64448024  0.02910081  0.43839300    -0.25460
C1079       C  0.65381645  0.02109049  0.41686332    -0.14700
C1080       C  0.64359662  0.01332277  0.39544887     0.37630
N1081       N  0.65270777  0.50347742  0.37340511    -0.88950
H1082       H  0.61674511  0.50900267  0.37921685     0.18740
H1083       H  0.65231405  0.03508196  0.45483287     0.18730
N1084       N  0.61598345  0.04022170  0.46080601    -0.87980
H1085       H  0.64320801  0.49922596  0.35921363     0.36110
H1086       H  0.65904912  0.48024099  0.37674569     0.41210
H1087       H  0.60998846  0.06388903  0.45789318     0.40830
H1088       H  0.62546418  0.04351134  0.47514558     0.35720
C1089       C  0.70528635  0.37963871  0.36396613    -0.26010
C1090       C  0.72045403  0.37106466  0.34977431    -0.14090
C1091       C  0.73648807  0.39146313  0.35100295     0.36540
C1092       C  0.73666126  0.42099860  0.36567639    -0.25460
C1093       C  0.72140609  0.42959708  0.37984460    -0.14700
C1094       C  0.70561184  0.40844071  0.37912423     0.37630
N1095       N  0.68966782  0.41695618  0.39305271    -0.88950
H1096       H  0.69303425  0.36376983  0.36310740     0.18740
H1097       H  0.74868975  0.43743927  0.36600781     0.18730
N1098       N  0.75216234  0.38301076  0.33658250    -0.87980
H1099       H  0.67932205  0.39858465  0.39069017     0.36110
H1100       H  0.68444177  0.43956802  0.38600962     0.41210
H1101       H  0.75750241  0.36037864  0.34342702     0.40830
H1102       H  0.76252652  0.40137394  0.33881978     0.35720
C1103       C  0.71374061  0.18314357  0.37234169    -0.26010
C1104       C  0.71720244  0.18315456  0.34719801    -0.14090
C1105       C  0.72083187  0.15193469  0.33530227     0.36540
C1106       C  0.72048621  0.12179367  0.34861773    -0.25460
C1107       C  0.71630827  0.12173907  0.37351102    -0.14700
C1108       C  0.71329051  0.15284522  0.38566609     0.37630
N1109       N  0.70989147  0.15366661  0.41148785    -0.88950
H1110       H  0.71106884  0.20685760  0.38164262     0.18740
H1111       H  0.72304228  0.09809300  0.33922047     0.18730
N1112       N  0.72498599  0.14978127  0.30983614    -0.87980
H1113       H  0.70764152  0.17849884  0.41743719     0.36110
H1114       H  0.72182780  0.14551658  0.42043023     0.41210
H1115       H  0.73618895  0.16573903  0.30622820     0.40830
H1116       H  0.71355543  0.15743107  0.29960506     0.35720
C1117       C  0.52583639  0.33422802  0.23036461    -0.26010
C1118       C  0.51763618  0.31756838  0.25018037    -0.14090
C1119       C  0.49879672  0.32299034  0.25474082     0.36540
C1120       C  0.48875406  0.34503160  0.23960670    -0.25460
C1121       C  0.49691931  0.36148114  0.21970241    -0.14700
C1122       C  0.51576114  0.35621037  0.21518885     0.37630
N1123       N  0.52466804  0.37329594  0.19533783    -0.88950
H1124       H  0.54033571  0.33077041  0.22700727     0.18740
H1125       H  0.47425061  0.34848174  0.24294850     0.18730
N1126       N  0.48982381  0.30595441  0.27456520    -0.87980
H1127       H  0.53846153  0.36632854  0.19434211     0.36110
H1128       H  0.52459568  0.39930230  0.19918143     0.41210
H1129       H  0.48969537  0.27997988  0.27059732     0.40830
H1130       H  0.47608431  0.31322879  0.27567806     0.35720
C1131       C  0.53481346  0.15142914  0.33702403    -0.26010
C1132       C  0.54690945  0.17801580  0.34343668    -0.14090
C1133       C  0.55878631  0.17432107  0.36383788     0.36540
C1134       C  0.55797901  0.14458167  0.37778646    -0.25460
C1135       C  0.54592140  0.11786006  0.37154037    -0.14700
C1136       C  0.53408427  0.12139965  0.35099444     0.37630
N1137       N  0.52131392  0.09471711  0.34448305    -0.88950
H1138       H  0.52573682  0.15433417  0.32134939     0.18740
H1139       H  0.56736632  0.14178369  0.39314964     0.18730
N1140       N  0.57209304  0.20039803  0.36985737    -0.87980
H1141       H  0.51373833  0.10124282  0.32886990     0.36110
H1142       H  0.51190664  0.09248099  0.35868283     0.41210
H1143       H  0.58136549  0.20189586  0.35544732     0.40830
H1144       H  0.57976039  0.19380154  0.38537531     0.35720
C1145       C  0.56924399  0.37623835  0.35725546    -0.26010
C1146       C  0.55310412  0.36626241  0.34491230    -0.14090
C1147       C  0.53759605  0.38763910  0.34505423     0.36540
C1148       C  0.53858446  0.41806301  0.35824163    -0.25460
C1149       C  0.55464748  0.42783487  0.37096788    -0.14700
C1150       C  0.57018090  0.40654609  0.37038984     0.37630
N1151       N  0.58722419  0.41525941  0.38234235    -0.88950
H1152       H  0.58122734  0.36012195  0.35685085     0.18740
H1153       H  0.52665334  0.43429456  0.35843104     0.18730
N1154       N  0.52090242  0.38007111  0.33163460    -0.87980
H1155       H  0.58517651  0.41626559  0.40117774     0.36110
H1156       H  0.59160650  0.43905534  0.37616985     0.41210
H1157       H  0.52186499  0.35790490  0.32133894     0.40830
H1158       H  0.51891587  0.39956836  0.31898798     0.35720
C1159       C  0.62265194  0.25240269  0.31677939    -0.26010
C1160       C  0.61331845  0.26585130  0.29653868    -0.14090
C1161       C  0.62346364  0.28080594  0.27751829     0.36540
C1162       C  0.64276421  0.28299284  0.27969092    -0.25460
C1163       C  0.65208094  0.27043140  0.30040537    -0.14700
C1164       C  0.64178792  0.25469244  0.31911316     0.37630
N1165       N  0.65062270  0.24167808  0.34074608    -0.88950
H1166       H  0.61485832  0.24084944  0.33137348     0.18740
H1167       H  0.65053347  0.29488052  0.26523394     0.18730
N1168       N  0.61418053  0.29509074  0.25669668    -0.87980
H1169       H  0.64114582  0.22930261  0.35192836     0.36110
H1170       H  0.65561344  0.26248327  0.35080339     0.41210
H1171       H  0.60818141  0.27502549  0.24682146     0.40830
H1172       H  0.62361378  0.30665693  0.24502732     0.35720
C1173       C  0.74948402  0.20576700  0.21416975    -0.26010
C1174       C  0.76846979  0.21229491  0.21433395    -0.14090
C1175       C  0.77584187  0.23673297  0.23083674     0.36540
C1176       C  0.76406236  0.25385627  0.24673404    -0.25460
C1177       C  0.74508295  0.24721489  0.24668384    -0.14700
C1178       C  0.73770859  0.22277969  0.23015681     0.37630
N1179       N  0.71843910  0.21433058  0.23016986    -0.88950
H1180       H  0.74377273  0.18724893  0.20144290     0.18740
H1181       H  0.76980582  0.27230370  0.25948734     0.18730
N1182       N  0.79514299  0.24495057  0.23097133    -0.87980
H1183       H  0.71556542  0.19418803  0.21819957     0.36110
H1184       H  0.71137585  0.23522689  0.22323002     0.41210
H1185       H  0.80208951  0.22409358  0.23818109     0.40830
H1186       H  0.79801030  0.26523726  0.24281635     0.35720
C1187       C  0.98799228  0.12514478  0.24642177    -0.26010
C1188       C  0.99647954  0.14043382  0.22626596    -0.14090
C1189       C  0.01494746  0.13249452  0.22138539     0.36540
C1190       C  0.02434199  0.10925117  0.23623646    -0.25460
C1191       C  0.01582921  0.09353836  0.25621855    -0.14700
C1192       C  0.99742542  0.10206471  0.26153563     0.37630
N1193       N  0.98831770  0.08755691  0.28225559    -0.88950
H1194       H  0.97378599  0.13083338  0.25026582     0.18740
H1195       H  0.03851740  0.10369276  0.23209310     0.18730
N1196       N  0.02432248  0.14793992  0.20135976    -0.87980
H1197       H  0.97459024  0.09506964  0.28274298     0.36110
H1198       H  0.99460497  0.09771139  0.29796150     0.41210
H1199       H  0.02879894  0.12865934  0.18977642     0.40830
H1200       H  0.03590982  0.16078105  0.20829491     0.35720
C1201       C  0.87046793  0.17985031  0.18920831    -0.26010
C1202       C  0.86249507  0.17673412  0.16578320    -0.14090
C1203       C  0.87388035  0.17754870  0.14513181     0.36540
C1204       C  0.89283592  0.18214053  0.14828423    -0.25460
C1205       C  0.90095888  0.18555559  0.17160474    -0.14700
C1206       C  0.88959924  0.18458573  0.19237169     0.37630
N1207       N  0.89740600  0.18812659  0.21649372    -0.88950
H1208       H  0.86169301  0.17952447  0.20504839     0.18740
H1209       H  0.90135135  0.18264195  0.13220033     0.18730
N1210       N  0.86620162  0.17329863  0.12095300    -0.87980
H1211       H  0.88722966  0.18549872  0.22968793     0.36110
H1212       H  0.90249453  0.21294824  0.21815258     0.41210
H1213       H  0.86074662  0.14868499  0.11976096     0.40830
H1214       H  0.87642347  0.17502234  0.10774951     0.35720
C1215       C  0.75756844  0.34235410  0.00650190    -0.26010
C1216       C  0.76251682  0.37457229  0.99751804    -0.14090
C1217       C  0.75930487  0.38183874  0.97253999     0.37660
C1218       C  0.75151316  0.35660216  0.95738032    -0.25460
C1219       C  0.74635313  0.32452997  0.96644287    -0.14700
C1220       C  0.74983446  0.31709256  0.99132171     0.37630
N1221       N  0.74626166  0.28420792  0.00171238    -0.88950
H1222       H  0.76040026  0.33620337  0.02546430     0.18740
H1223       H  0.74861573  0.36282055  0.93844607     0.18730
N1224       N  0.76304696  0.41459585  0.96204589    -0.87980
H1225       H  0.75871568  0.27516773  0.00870831     0.36110
H1226       H  0.74219909  0.26663822  0.98838563     0.41210
H1227       H  0.76730880  0.43217349  0.97525274     0.40830
H1228       H  0.75063760  0.42385569  0.95506626     0.35720
C1229       C  0.79507333  0.05331173  0.07441923    -0.26010
C1230       C  0.78575516  0.02533297  0.08441547    -0.14090
C1231       C  0.77823081  0.02843324  0.10803997     0.36540
C1232       C  0.78121671  0.05849438  0.12157702    -0.25460
C1233       C  0.79129254  0.08582711  0.11198739    -0.14700
C1234       C  0.79808791  0.08330358  0.08792836     0.37630
N1235       N  0.80870630  0.11056395  0.07757385    -0.88950
H1236       H  0.80097299  0.05117746  0.05641813     0.18740
H1237       H  0.77570948  0.06051471  0.13981001     0.18730
N1238       N  0.76794437  0.50086416  0.11841905    -0.87980
H1239       H  0.81233198  0.10491435  0.05960681     0.36110
H1240       H  0.82100712  0.11252807  0.08758073     0.41210
H1241       H  0.75602156  0.49758101  0.10778480     0.40830
H1242       H  0.76365485  0.50702511  0.13602410     0.35720
C1243       C  0.78948063  0.30637268  0.08207209    -0.26010
C1244       C  0.79585359  0.33572720  0.09406699    -0.14090
C1245       C  0.80194856  0.33407872  0.11849426     0.36540
C1246       C  0.80196390  0.30259546  0.13033049    -0.25460
C1247       C  0.79592623  0.27289114  0.11822694    -0.14700
C1248       C  0.78914454  0.27497433  0.09397789     0.37630
N1249       N  0.78240341  0.24529663  0.08126147    -0.88950
H1250       H  0.78461836  0.30804508  0.06331777     0.18740
H1251       H  0.80703708  0.30119776  0.14898605     0.18730
N1252       N  0.80864435  0.36406036  0.13087797    -0.87980
H1253       H  0.77899262  0.25109006  0.06314774     0.36110
H1254       H  0.77012424  0.23789784  0.08951346     0.41210
H1255       H  0.82054015  0.37219454  0.12201082     0.40830
H1256       H  0.81255697  0.35842335  0.14884175     0.35720
C1257       C  0.99518804  0.49361241  0.96828059    -0.26010
C1258       C  0.01377972  0.49994237  0.97409334    -0.14090
C1259       C  0.02058371  0.49025669  0.99734620     0.36540
C1260       C  0.00859314  0.47520161  0.01419782    -0.25460
C1261       C  0.98999417  0.46897007  0.00840006    -0.14700
C1262       C  0.98321358  0.47847772  0.98509489     0.37630
N1263       N  0.96419873  0.47319558  0.97853189    -0.88950
H1264       H  0.98985702  0.50068977  0.95047082     0.18740
H1265       H  0.01390674  0.46808750  0.03200891     0.18730
N1266       N  0.03962580  0.49532048  0.00382604    -0.87980
H1267       H  0.96174270  0.47999626  0.96034542     0.36110
H1268       H  0.95647282  0.48976306  0.98913517     0.41210
H1269       H  0.04712336  0.97891196  0.99323018     0.40830
H1270       H  0.04210739  0.48837239  0.02197692     0.35720
C1271       C  0.96346432  0.27976818  0.10971000    -0.26010
C1272       C  0.96967375  0.28193461  0.13408025    -0.14090
C1273       C  0.97462686  0.31411671  0.14379935     0.36540
C1274       C  0.97233458  0.34315367  0.12930854    -0.25460
C1275       C  0.96551743  0.34108953  0.10514067    -0.14700
C1276       C  0.96134585  0.30876997  0.09513460     0.37630
N1277       N  0.95434229  0.30538172  0.07056196    -0.88950
H1278       H  0.95958559  0.25522277  0.10216528     0.18740
H1279       H  0.97594525  0.36765003  0.13714177     0.18730
N1280       N  0.98256732  0.31842051  0.16778451    -0.87980
H1281       H  0.95084135  0.28012222  0.06666313     0.36110
H1282       H  0.96502511  0.31178024  0.05879041     0.41210
H1283       H  0.98592977  0.29530000  0.17580120     0.40830
H1284       H  0.97282458  0.33017679  0.17872986     0.35720
C1285       C  0.95325433  0.06062672  0.09358467    -0.26010
C1286       C  0.95767995  0.03061218  0.10603739    -0.14090
C1287       C  0.96344980  0.03237557  0.13075143     0.36540
C1288       C  0.96471251  0.06408927  0.14229139    -0.25460
C1289       C  0.96020578  0.09393159  0.12984339    -0.14700
C1290       C  0.95425959  0.09223520  0.10517128     0.37630
N1291       N  0.94813211  0.12134550  0.09165512    -0.88950
H1292       H  0.94865622  0.05957424  0.07468973     0.18740
H1293       H  0.96907828  0.06555283  0.16127751     0.18730
N1294       N  0.96771925  0.00211874  0.14420802    -0.87980
H1295       H  0.95766194  0.12605567  0.07790073     0.36110
H1296       H  0.94743282  0.14311921  0.10240301     0.41210
H1297       H  0.95556301  0.48825929  0.14602445     0.40830
H1298       H  0.97225592  0.00812802  0.16191012     0.35720
C1299       C  0.86537972  0.41045015  0.03526087    -0.26010
C1300       C  0.85568253  0.43626547  0.04692360    -0.14090
C1301       C  0.86538198  0.46096881  0.06088727     0.36540
C1302       C  0.88439847  0.45808039  0.06386301    -0.25460
C1303       C  0.89415361  0.43152607  0.05305071    -0.14700
C1304       C  0.88444209  0.40714032  0.03856091     0.37630
N1305       N  0.89300423  0.37782614  0.02806986    -0.88950
H1306       H  0.85789176  0.39121153  0.02488088     0.18740
H1307       H  0.89167551  0.47713928  0.07467243     0.18730
N1308       N  0.85648893  0.48931160  0.07224541    -0.87980
H1309       H  0.88630737  0.35631425  0.03491051     0.36110
H1310       H  0.90661002  0.37543857  0.03379984     0.41210
H1311       H  0.84257611  0.49034371  0.06753095     0.40830
H1312       H  0.86223860  0.01138887  0.06532288     0.35720
O1313       O  0.96324189  0.97105817  0.10069549    -0.57510
C1314       C  0.96190904  0.87302902  0.09148525     0.75120
O1315       O  0.92545213  0.92316267  0.04106026    -0.58670
C1316       C  0.95618069  0.49801732  0.09271855     0.75090
C1317       C  0.97774548  0.95457665  0.02757853     0.77480
Cd1318     Cd  0.95313238  0.93563569  0.06634484     1.37460
O1319       O  0.96289612  0.90165750  0.10187219    -0.57510
O1320       O  0.98329828  0.95098647  0.04938270    -0.56320
C1321       C  0.91413544  0.93105577  0.05744278     0.77440
O1322       O  0.96120448  0.94612689  0.02338245    -0.58690
O1323       O  0.95741330  0.87344535  0.06907435    -0.57140
O1324       O  0.94760848  0.49582823  0.07252579    -0.57130
O1325       O  0.92092954  0.94026882  0.07780784    -0.56300
O1326       O  0.78279105  0.96444477  0.08205156    -0.57510
C1327       C  0.79635197  0.86744946  0.08027009     0.75120
O1328       O  0.78712804  0.91317689  0.00857928    -0.58670
C1329       C  0.78664056  0.99206370  0.07149414     0.75090
C1330       C  0.83542797  0.93367489  0.04751446     0.77480
Cd1331     Cd  0.79632287  0.92698823  0.05133251     1.37470
O1332       O  0.79154470  0.89551450  0.08939137    -0.57510
O1333       O  0.82723577  0.93266353  0.06767994    -0.56320
C1334       C  0.77246977  0.89774939  0.01450521     0.77440
O1335       O  0.82554576  0.93157650  0.02834198    -0.58690
O1336       O  0.80149573  0.86756786  0.05832713    -0.57140
O1337       O  0.79277244  0.98945804  0.04999296    -0.57130
O1338       O  0.76771890  0.90041566  0.03656622    -0.56300
O1339       O  0.97220419  0.72201275  0.13891429    -0.57510
C1340       C  0.96100829  0.62566911  0.14374469     0.75120
O1341       O  0.96897841  0.67008761  0.21415442    -0.58670
C1342       C  0.96889163  0.75032098  0.14873315     0.75090
C1343       C  0.92134884  0.68764641  0.17300860     0.77480
Cd1344     Cd  0.96076760  0.68629691  0.17170494     1.37470
O1345       O  0.96898172  0.65219604  0.13599315    -0.57510
O1346       O  0.93063042  0.68314917  0.15397374    -0.56320
C1347       C  0.98517758  0.66104898  0.20914392     0.77440
O1348       O  0.93048686  0.69322939  0.19255300    -0.58690
O1349       O  0.95359728  0.62732051  0.16444559    -0.57140
O1350       O  0.96346781  0.74950146  0.17066961    -0.57130
O1351       O  0.99067544  0.66844062  0.18797364    -0.56300
O1352       O  0.79863034  0.64486948  0.11785147    -0.57510
C1353       C  0.79794095  0.74009618  0.13088406     0.75120
O1354       O  0.79713086  0.69275162  0.19816600    -0.58670
C1355       C  0.79479677  0.61653232  0.12730479     0.75090
C1356       C  0.84227355  0.67513303  0.16280867     0.77480
Cd1357     Cd  0.80311724  0.67725223  0.15561557     1.37460
O1358       O  0.79004065  0.71312589  0.12356123    -0.57510
O1359       O  0.83457873  0.68670909  0.14384003    -0.56320
C1360       C  0.77997285  0.69614923  0.19545883     0.77440
O1361       O  0.83173947  0.66303552  0.17895632    -0.58690
O1362       O  0.80808437  0.73759669  0.14966714    -0.57140
O1363       O  0.79427653  0.61596848  0.15047247    -0.57130
O1364       O  0.77321508  0.68647196  0.17515631    -0.56300
O1365       O  0.54127751  0.81124546  0.33454448    -0.57510
C1366       C  0.54735469  0.70980842  0.32914174     0.75120
O1367       O  0.54580837  0.78998240  0.26210855    -0.58670
C1368       C  0.55335012  0.83414077  0.33150457     0.75090
C1369       C  0.59306559  0.76727486  0.29771365     0.77480
Cd1370     Cd  0.55424839  0.77284896  0.30423266     1.37470
O1371       O  0.54927938  0.73803887  0.33985425    -0.57510
O1372       O  0.58545239  0.76979773  0.31823011    -0.56320
C1373       C  0.52946798  0.79794031  0.26728435     0.77440
O1374       O  0.58249347  0.76641404  0.27908750    -0.58690
O1375       O  0.54674255  0.71045013  0.30596541    -0.57140
O1376       O  0.56595889  0.82808532  0.31652731    -0.57130
O1377       O  0.52419911  0.79011699  0.28847438    -0.56300
O1378       O  0.73031181  0.81703094  0.33429334    -0.57510
C1379       C  0.71618773  0.71574289  0.33398782     0.75120
O1380       O  0.68186914  0.79005571  0.28674935    -0.58670
C1381       C  0.71875902  0.84079724  0.33381866     0.75090
C1382       C  0.73376154  0.76264149  0.26606391     0.77480
Cd1383     Cd  0.71163570  0.77781423  0.30770067     1.37470
O1384       O  0.71674340  0.74406686  0.34500697    -0.57510
O1385       O  0.74089681  0.77291954  0.28598201    -0.56320
C1386       C  0.67242016  0.77371084  0.30222843     0.77440
O1387       O  0.71645654  0.76446598  0.26436799    -0.58690
O1388       O  0.71404809  0.71685848  0.31114419    -0.57140
O1389       O  0.70490511  0.83649017  0.31994791    -0.57130
O1390       O  0.68131223  0.76015291  0.31952863    -0.56300
O1391       O  0.54258212  0.55740184  0.37661114    -0.57510
C1392       C  0.55481205  0.96037258  0.38423614     0.75120
O1393       O  0.58447881  0.52807808  0.43432083    -0.58670
C1394       C  0.54731904  0.58578544  0.38559530     0.75090
C1395       C  0.53064180  0.50294467  0.44914458     0.77480
Cd1396     Cd  0.55520841  0.52273678  0.41045386     1.37470
O1397       O  0.54477844  0.98483698  0.37754491    -0.57510
O1398       O  0.52666712  0.49922204  0.42677667    -0.56320
C1399       C  0.59457300  0.52496636  0.41573608     0.77440
O1400       O  0.54548277  0.51885722  0.45390767    -0.58690
O1401       O  0.56479300  0.96513083  0.40299737    -0.57140
O1402       O  0.55434180  0.58509941  0.40686559    -0.57130
O1403       O  0.58627686  0.52205211  0.39539542    -0.56300
O1404       O  0.72727485  0.98940885  0.38375385    -0.57510
C1405       C  0.71497529  0.58909809  0.38646393     0.75120
O1406       O  0.68395338  0.51925217  0.43568273    -0.58670
C1407       C  0.72109453  0.96238568  0.39316156     0.75090
C1408       C  0.73635678  0.55567332  0.45263873     0.77480
Cd1409     Cd  0.71339491  0.52807277  0.41406574     1.37460
O1410       O  0.72300118  0.56267582  0.37901604    -0.57510
O1411       O  0.74269941  0.54794553  0.43197419    -0.56320
C1412       C  0.67414729  0.52276095  0.41653803     0.77440
O1413       O  0.72013900  0.54545359  0.45676794    -0.58690
O1414       O  0.70567936  0.58619574  0.40567410    -0.57140
O1415       O  0.71344510  0.96538754  0.41369636    -0.57130
O1416       O  0.68262927  0.52848198  0.39692557    -0.56300
O1417       O  0.96986691  0.89334920  0.63847661    -0.57510
C1418       C  0.96677646  0.99290212  0.65041315     0.75120
O1419       O  0.93042813  0.94030053  0.69380807    -0.58670
C1420       C  0.96155824  0.86678547  0.64556047     0.75090
C1421       C  0.98226062  0.90348407  0.71365563     0.77480
Cd1422     Cd  0.96004365  0.92796460  0.67367623     1.37470
O1423       O  0.97563385  0.96677272  0.64441388    -0.57510
O1424       O  0.98940056  0.91518704  0.69444412    -0.56320
C1425       C  0.92092971  0.92731483  0.67645733     0.77440
O1426       O  0.96528018  0.90875294  0.71607780    -0.58690
O1427       O  0.95627180  0.98978554  0.66854309    -0.57140
O1428       O  0.95275231  0.86938103  0.66516953    -0.57130
O1429       O  0.92963147  0.91683376  0.65813692    -0.56300
O1430       O  0.79537567  0.88866705  0.62568635    -0.57510
C1431       C  0.80145493  0.98667366  0.63536525     0.75120
O1432       O  0.79246478  0.92574212  0.70410515    -0.58670
C1433       C  0.79477494  0.86058525  0.63680960     0.75090
C1434       C  0.84183902  0.92150275  0.67202233     0.77480
Cd1435     Cd  0.80303924  0.92393988  0.66150675     1.37470
O1436       O  0.79363590  0.96008773  0.62715156    -0.57510
O1437       O  0.83485499  0.90990102  0.65241634    -0.56320
C1438       C  0.77694611  0.93828319  0.69893439     0.77440
O1439       O  0.83074436  0.93307536  0.68746136    -0.58690
O1440       O  0.81030548  0.98350788  0.65516512    -0.57140
O1441       O  0.79714379  0.86200447  0.65978266    -0.57130
O1442       O  0.77296151  0.94060398  0.67647517    -0.56300
O1443       O  0.97546400  0.63889140  0.59372343    -0.57510
C1444       C  0.95988417  0.73853560  0.59448295     0.75120
O1445       O  0.96595338  0.68450144  0.52232110    -0.58670
C1446       C  0.96501308  0.61347534  0.59005843     0.75090
C1447       C  0.91882740  0.67885933  0.55709214     0.77480
Cd1448     Cd  0.95784371  0.67766670  0.56590806     1.37460
O1449       O  0.95726568  0.71001021  0.60447751    -0.57510
O1450       O  0.92625808  0.68537821  0.57757729    -0.56320
C1451       C  0.98180883  0.69692994  0.52664752     0.77440
O1452       O  0.92959522  0.67239354  0.53970676    -0.58690
O1453       O  0.96177234  0.73853087  0.57160968    -0.57140
O1454       O  0.95298868  0.61660919  0.57339333    -0.57130
O1455       O  0.98724539  0.69618155  0.54868916    -0.56300
O1456       O  0.79621481  0.64190923  0.59379599    -0.57510
C1457       C  0.79063615  0.73605119  0.58041274     0.75120
O1458       O  0.82978154  0.69175294  0.53687338    -0.58670
C1459       C  0.79651401  0.61312199  0.58344824     0.75090
C1460       C  0.77634061  0.64857735  0.51698195     0.77480
Cd1461     Cd  0.79979903  0.67366651  0.55569894     1.37470
O1462       O  0.78974423  0.70732469  0.59053163    -0.57510
O1463       O  0.77002743  0.65681915  0.53760271    -0.56320
C1464       C  0.83932019  0.67595065  0.55260480     0.77440
O1465       O  0.79288702  0.65711415  0.51308761    -0.58690
O1466       O  0.79404900  0.73599169  0.55775417    -0.57140
O1467       O  0.79786525  0.61277611  0.56047202    -0.57130
O1468       O  0.83045071  0.65910695  0.56809593    -0.56300
O1469       O  0.54100533  0.50352103  0.84412402    -0.57510
C1470       C  0.54973386  0.59763361  0.83837670     0.75120
O1471       O  0.57800769  0.52475369  0.78505339    -0.58670
C1472       C  0.54198812  0.97474063  0.83411012     0.75090
C1473       C  0.52671098  0.56863611  0.77084176     0.77480
Cd1474     Cd  0.54968908  0.53824993  0.80876685     1.37460
O1475       O  0.53597753  0.57769295  0.83794910    -0.57510
O1476       O  0.52057621  0.55949191  0.79130484    -0.56320
C1477       C  0.58873382  0.53405510  0.80237445     0.77440
O1478       O  0.54302788  0.55968649  0.76650956    -0.58690
O1479       O  0.56337849  0.58922819  0.82577011    -0.57140
O1480       O  0.54481790  0.97508782  0.81128917    -0.57130
O1481       O  0.58112689  0.54413184  0.82166872    -0.56300
O1482       O  0.71445017  0.99051134  0.84525461    -0.57510
C1483       C  0.71711878  0.58894104  0.83122454     0.75120
O1484       O  0.71516541  0.50965557  0.76695025    -0.58670
C1485       C  0.70902072  0.96281681  0.83571606     0.75090
C1486       C  0.66816119  0.53119118  0.80352514     0.77480
Cd1487     Cd  0.70726931  0.52459861  0.80915255     1.37460
O1488       O  0.72001959  0.56108482  0.84189380    -0.57510
O1489       O  0.67611356  0.52772246  0.82400287    -0.56320
C1490       C  0.73182308  0.00298124  0.77167056     0.77440
O1491       O  0.67835369  0.53159199  0.78493383    -0.58690
O1492       O  0.71111899  0.58690049  0.80941392    -0.57140
O1493       O  0.70228264  0.96428533  0.81438948    -0.57130
O1494       O  0.73746428  0.51038154  0.79296154    -0.56300
O1495       O  0.54793916  0.82025276  0.87905994    -0.57510
C1496       C  0.55322064  0.72531423  0.88897748     0.75120
O1497       O  0.58150588  0.80068797  0.94166011    -0.58670
C1498       C  0.54525859  0.84852766  0.88920008     0.75090
C1499       C  0.52756779  0.75997000  0.95161076     0.77480
Cd1500     Cd  0.55349559  0.78639228  0.91623555     1.37460
O1501       O  0.54393244  0.75057262  0.88187122    -0.57510
O1502       O  0.52454555  0.75946306  0.92886910    -0.56320
C1503       C  0.59246234  0.78761521  0.92653346     0.77440
O1504       O  0.54172692  0.77657001  0.95855458    -0.58690
O1505       O  0.56233474  0.72856951  0.90867757    -0.57140
O1506       O  0.54581423  0.84826434  0.91236510    -0.57130
O1507       O  0.58545992  0.77585677  0.90706970    -0.56300
O1508       O  0.70990237  0.74212409  0.87740424    -0.57510
C1509       C  0.71065360  0.83689198  0.88819366     0.75120
O1510       O  0.68187190  0.75692240  0.93904705    -0.58670
C1511       C  0.71587787  0.71478418  0.88619389     0.75090
C1512       C  0.73531603  0.80213007  0.94992274     0.77480
Cd1513     Cd  0.70922941  0.77551462  0.91474894     1.37470
O1514       O  0.71755286  0.81008471  0.87949321    -0.57510
O1515       O  0.73884081  0.80033830  0.92741689    -0.56320
C1516       C  0.67070117  0.77387788  0.92608616     0.77440
O1517       O  0.72090074  0.78677949  0.95685447    -0.58690
O1518       O  0.70299200  0.83454410  0.90871681    -0.57140
O1519       O  0.71979052  0.71533962  0.90884922    -0.57130
O1520       O  0.67736682  0.79017175  0.90846246    -0.56300
O1521       O  0.04191712  0.75046981  0.84684614    -0.57510
C1522       C  0.04747226  0.84383561  0.83834491     0.75120
O1523       O  0.07554032  0.76706942  0.78516636    -0.58670
C1524       C  0.03998749  0.72170591  0.83689966     0.75090
C1525       C  0.02566680  0.81223532  0.77345570     0.77480
Cd1526     Cd  0.04882060  0.78291869  0.81057998     1.37470
O1527       O  0.03666756  0.81927594  0.84257317    -0.57510
O1528       O  0.01877988  0.79795523  0.79195385    -0.56320
C1529       C  0.08718904  0.77322275  0.80207560     0.77440
O1530       O  0.04264149  0.80766256  0.77038407    -0.58690
O1531       O  0.05935191  0.83912543  0.82207124    -0.57140
O1532       O  0.04057844  0.72117258  0.81371526    -0.57130
O1533       O  0.08100443  0.78271674  0.82241535    -0.56300
O1534       O  0.21326178  0.73806258  0.84692318    -0.57510
C1535       C  0.21320921  0.83235034  0.83711026     0.75120
O1536       O  0.21442839  0.75920206  0.76650869    -0.58670
C1537       C  0.21091118  0.70915708  0.83713792     0.75090
C1538       C  0.16638746  0.76756663  0.80254259     0.77480
Cd1539     Cd  0.20597067  0.76975471  0.80975525     1.37470
O1540       O  0.21122588  0.80373299  0.84710697    -0.57510
O1541       O  0.17499319  0.75011961  0.81802907    -0.56320
C1542       C  0.23107160  0.75197488  0.77091013     0.77440
O1543       O  0.17625277  0.78666914  0.78935619    -0.58690
O1544       O  0.21277185  0.83224209  0.81394629    -0.57140
O1545       O  0.20661547  0.70842318  0.81469316    -0.57130
O1546       O  0.23641606  0.75645696  0.79277288    -0.56300
O1547       O  0.03603389  0.56781442  0.88283056    -0.57510
C1548       C  0.04604878  0.97252676  0.88814845     0.75120
O1549       O  0.07982882  0.54410692  0.93771147    -0.58670
C1550       C  0.04022293  0.59639259  0.89190762     0.75090
C1551       C  0.02581848  0.51468464  0.95498563     0.77480
Cd1552     Cd  0.04978841  0.53332578  0.91571130     1.37460
O1553       O  0.04850538  0.00085840  0.87775991    -0.57510
O1554       O  0.01993898  0.51919429  0.93339102    -0.56320
C1555       C  0.08923598  0.52920123  0.92163958     0.77440
O1556       O  0.04255802  0.52228199  0.95888479    -0.58690
O1557       O  0.04432349  0.97289489  0.91109458    -0.57140
O1558       O  0.04788687  0.59577992  0.91280676    -0.57130
O1559       O  0.08034418  0.51788912  0.90344528    -0.56300
O1560       O  0.21545176  0.98524167  0.88363940    -0.57510
C1561       C  0.20934527  0.58423180  0.89141028     0.75120
O1562       O  0.17913743  0.51576267  0.94313225    -0.58670
C1563       C  0.21354938  0.95711217  0.89442091     0.75090
C1564       C  0.23266760  0.54387711  0.95690128     0.77480
Cd1565     Cd  0.20744019  0.52209413  0.91833843     1.37460
O1566       O  0.21947427  0.55942445  0.88600545    -0.57510
O1567       O  0.23809317  0.53572493  0.93586251    -0.56320
C1568       C  0.16842823  0.51999042  0.92495828     0.77440
O1569       O  0.21582208  0.53822889  0.96094272    -0.58690
O1570       O  0.19832502  0.57950853  0.90871107    -0.57140
O1571       O  0.20995129  0.95893352  0.91698467    -0.57130
O1572       O  0.17582708  0.52342800  0.90433455    -0.56300
O1573       O  0.47106473  0.69183861  0.09047226    -0.57510
C1574       C  0.46752511  0.59232590  0.08421987     0.75120
O1575       O  0.43131383  0.63456351  0.03475374    -0.58670
C1576       C  0.45925016  0.71465169  0.08637839     0.75090
C1577       C  0.48403977  0.68292162  0.02122277     0.77480
Cd1578     Cd  0.45944231  0.65470459  0.05776050     1.37460
O1579       O  0.46598630  0.62072306  0.09467036    -0.57510
O1580       O  0.48810875  0.68142167  0.04364703    -0.56320
C1581       C  0.42034310  0.65001416  0.04866539     0.77440
O1582       O  0.46928768  0.66776915  0.01484172    -0.58690
O1583       O  0.46637661  0.59283973  0.06110803    -0.57140
O1584       O  0.44769794  0.70913369  0.06934222    -0.57130
O1585       O  0.42745709  0.66649159  0.06622274    -0.56300
O1586       O  0.28910503  0.59675685  0.09627975    -0.57510
C1587       C  0.29821576  0.70062076  0.09487360     0.75120
O1588       O  0.32989922  0.65841247  0.04328151    -0.58670
C1589       C  0.30271222  0.57697308  0.09672655     0.75090
C1590       C  0.27900205  0.61413635  0.02886166     0.77480
Cd1591     Cd  0.30366161  0.63742429  0.06789811     1.37460
O1592       O  0.29656217  0.67188672  0.10484950    -0.57510
O1593       O  0.27305039  0.62569002  0.04877195    -0.56320
C1594       C  0.34186465  0.64163212  0.05503595     0.77440
O1595       O  0.29618521  0.61646339  0.02614505    -0.58690
O1596       O  0.30158867  0.70019599  0.07225421    -0.57140
O1597       O  0.31647012  0.58587855  0.08440421    -0.57130
O1598       O  0.33619341  0.62393463  0.07269217    -0.56300
O1599       O  0.47380465  0.86120087  0.13994572    -0.57510
C1600       C  0.46610991  0.96629785  0.13930300     0.75120
O1601       O  0.43408412  0.90088912  0.19631111    -0.58670
C1602       C  0.45976292  0.84237136  0.13756084     0.75090
C1603       C  0.48496375  0.88043637  0.20239687     0.77480
Cd1604     Cd  0.45921397  0.90352184  0.16577528     1.37470
O1605       O  0.46446388  0.93759414  0.12922176    -0.57510
O1606       O  0.48969119  0.88620820  0.18065489    -0.56320
C1607       C  0.42148688  0.90616060  0.18064470     0.77440
O1608       O  0.46891663  0.88956666  0.20800451    -0.58690
O1609       O  0.46559047  0.96625464  0.16247297    -0.57140
O1610       O  0.44526216  0.85271748  0.14745240    -0.57130
O1611       O  0.42646578  0.91085399  0.15884975    -0.56300
O1612       O  0.30057064  0.85495456  0.14071485    -0.57510
C1613       C  0.30146345  0.95016727  0.14908675     0.75120
O1614       O  0.29720084  0.91506830  0.21807330    -0.58670
C1615       C  0.29920168  0.82633743  0.15091370     0.75090
C1616       C  0.34326295  0.89147015  0.18614946     0.77480
Cd1617     Cd  0.30422125  0.88986424  0.17765413     1.37460
O1618       O  0.28919788  0.92720160  0.14693917    -0.57510
O1619       O  0.33515845  0.90413456  0.16788302    -0.56320
C1620       C  0.27995285  0.91562904  0.21491527     0.77440
O1621       O  0.33323201  0.87557825  0.20126831    -0.58690
O1622       O  0.31449816  0.94437810  0.16384167    -0.57140
O1623       O  0.29893854  0.82669288  0.17408803    -0.57130
O1624       O  0.27383550  0.90002806  0.19624764    -0.56300
O1625       O  0.46826013  0.64409099  0.63092898    -0.57510
C1626       C  0.46833984  0.74363783  0.64290125     0.75120
O1627       O  0.43136140  0.68353011  0.69073730    -0.58670
C1628       C  0.45939258  0.61820354  0.63804475     0.75090
C1629       C  0.48552517  0.65436508  0.70326761     0.77480
Cd1630     Cd  0.46001034  0.67916624  0.66619655     1.37470
O1631       O  0.46953684  0.71536027  0.63212424    -0.57510
O1632       O  0.48993119  0.65756852  0.68111997    -0.56320
C1633       C  0.42074750  0.68330602  0.67218517     0.77440
O1634       O  0.47010169  0.66662904  0.70891185    -0.58690
O1635       O  0.46492683  0.74215514  0.66553966    -0.57140
O1636       O  0.45093385  0.62100279  0.65795762    -0.57130
O1637       O  0.42830425  0.68256072  0.65156626    -0.56300
O1638       O  0.29424804  0.71181450  0.62140253    -0.57510
C1639       C  0.29671707  0.61387099  0.62915600     0.75120
O1640       O  0.33084050  0.66864448  0.68195890    -0.58670
C1641       C  0.30019728  0.73942916  0.63048797     0.75090
C1642       C  0.27673009  0.69162089  0.69579011     0.77480
Cd1643     Cd  0.30244431  0.67666332  0.65679155     1.37470
O1644       O  0.28788794  0.64046909  0.62426635    -0.57510
O1645       O  0.27200319  0.69076620  0.67353100    -0.56320
C1646       C  0.34158492  0.68056569  0.66596879     0.77440
O1647       O  0.29294766  0.68199690  0.70039071    -0.58690
O1648       O  0.30704205  0.61516942  0.64790827    -0.57140
O1649       O  0.30730532  0.73761301  0.65162091    -0.57130
O1650       O  0.33428792  0.68869689  0.64575181    -0.56300
O1651       O  0.46507058  0.89592232  0.59514728    -0.57510
C1652       C  0.45692952  0.99073798  0.58601141     0.75120
O1653       O  0.46823945  0.92988519  0.51666496    -0.58670
C1654       C  0.46559050  0.86704722  0.58507692     0.75090
C1655       C  0.41774586  0.92223519  0.54575477     0.77480
Cd1656     Cd  0.45636196  0.92847666  0.55869695     1.37460
O1657       O  0.46020753  0.96252729  0.59591701    -0.57510
O1658       O  0.42423526  0.91203451  0.56589358    -0.56320
C1659       C  0.48392680  0.94188977  0.52233339     0.77440
O1660       O  0.42911921  0.93509691  0.53110514    -0.58690
O1661       O  0.45318601  0.99002454  0.56343098    -0.57140
O1662       O  0.46266263  0.86656650  0.56217522    -0.57130
O1663       O  0.48729817  0.94507476  0.54495311    -0.56300
O1664       O  0.28558802  0.96534757  0.57798361    -0.57510
C1665       C  0.29935850  0.86668614  0.57869219     0.75120
O1666       O  0.29134570  0.90621886  0.50673656    -0.58670
C1667       C  0.29307750  0.49197504  0.56966341     0.75090
C1668       C  0.33892718  0.92677015  0.54107726     0.77480
Cd1669     Cd  0.29988881  0.92559747  0.54845688     1.37470
O1670       O  0.29704712  0.89580645  0.58798041    -0.57510
O1671       O  0.33156735  0.91647161  0.56051628    -0.56320
C1672       C  0.27478624  0.89896336  0.51146623     0.77440
O1673       O  0.32814081  0.93700653  0.52433911    -0.58690
O1674       O  0.30160886  0.86529406  0.55589897    -0.57140
O1675       O  0.30221686  0.48839728  0.55031738    -0.57130
O1676       O  0.26920073  0.90898514  0.53205179    -0.56300
O1677       O  0.04039875  0.00265943  0.34215713    -0.57510
C1678       C  0.05004734  0.59734146  0.34142933     0.75120
O1679       O  0.07741857  0.54193090  0.28196082    -0.58670
C1680       C  0.04129779  0.97512365  0.33037462     0.75090
C1681       C  0.02702621  0.57106427  0.27236914     0.77480
Cd1682     Cd  0.05028643  0.54032066  0.30921634     1.37460
O1683       O  0.03585714  0.57919186  0.33789302    -0.57510
O1684       O  0.02035350  0.55536074  0.29037748    -0.56320
C1685       C  0.08856623  0.53255107  0.29852442     0.77440
O1686       O  0.04415754  0.56799368  0.26955171    -0.58690
O1687       O  0.06453056  0.58779571  0.33113869    -0.57140
O1688       O  0.04477623  0.97773168  0.30778383    -0.57130
O1689       O  0.08186262  0.52601282  0.31920689    -0.56300
O1690       O  0.21426273  0.56107949  0.34406606    -0.57510
C1691       C  0.20858760  0.96677560  0.33509342     0.75120
O1692       O  0.17895701  0.54387651  0.28258745    -0.58670
C1693       C  0.21478899  0.58993088  0.33404077     0.75090
C1694       C  0.23263896  0.50167590  0.27267148     0.77480
Cd1695     Cd  0.20666754  0.52758864  0.30754216     1.37470
O1696       O  0.21266862  0.99506313  0.34485204    -0.57510
O1697       O  0.23808927  0.51787873  0.29146570    -0.56320
C1698       C  0.16766665  0.53267530  0.29816616     0.77440
O1699       O  0.21553906  0.50229185  0.26826121    -0.58690
O1700       O  0.20330142  0.96699335  0.31306137    -0.57140
O1701       O  0.21273346  0.59020236  0.31095913    -0.57130
O1702       O  0.17459711  0.51994691  0.31725634    -0.56300
O1703       O  0.04380420  0.82251526  0.37721229    -0.57510
C1704       C  0.04769766  0.72677906  0.39000903     0.75120
O1705       O  0.07621489  0.79051708  0.44216405    -0.58670
C1706       C  0.04057189  0.85094550  0.38682836     0.75090
C1707       C  0.02380652  0.76909464  0.45313083     0.77480
Cd1708     Cd  0.04846091  0.79020884  0.41491033     1.37460
O1709       O  0.03543901  0.74868708  0.38598948    -0.57510
O1710       O  0.02020089  0.76455058  0.43069722    -0.56320
C1711       C  0.08734610  0.79275962  0.42460553     0.77440
O1712       O  0.03798402  0.78702353  0.45795902    -0.58690
O1713       O  0.06027669  0.73492690  0.40507359    -0.57140
O1714       O  0.03986604  0.85141053  0.40997582    -0.57130
O1715       O  0.08043358  0.79640888  0.40352479    -0.56300
O1716       O  0.21450480  0.74244851  0.38048816    -0.57510
C1717       C  0.20606611  0.84044138  0.38712135     0.75120
O1718       O  0.17629724  0.76802699  0.43821293    -0.58670
C1719       C  0.21215281  0.71434528  0.39114925     0.75090
C1720       C  0.22975354  0.80741561  0.45142185     0.77480
Cd1721     Cd  0.20491406  0.77930703  0.41463960     1.37460
O1722       O  0.21563471  0.81521915  0.38083347    -0.57510
O1723       O  0.23512217  0.79885465  0.43043806    -0.56320
C1724       C  0.16592687  0.78005367  0.42161191     0.77440
O1725       O  0.21359857  0.79804242  0.45669514    -0.58690
O1726       O  0.19567865  0.83611208  0.40514373    -0.57140
O1727       O  0.20731623  0.71620421  0.41326976    -0.57130
O1728       O  0.17354476  0.78856661  0.40191977    -0.56300
C1729       C  0.11802586  0.81643727  0.41701328    -0.26010
C1730       C  0.10744109  0.79080668  0.42778366    -0.14090
C1731       C  0.11633419  0.76220354  0.43807703     0.36540
C1732       C  0.13554913  0.75992440  0.43678833    -0.25460
C1733       C  0.14597980  0.78477145  0.42479906    -0.14700
C1734       C  0.13715623  0.81378578  0.41532460     0.37630
N1735       N  0.14762645  0.84074459  0.40431202    -0.88950
H1736       H  0.11121554  0.83823432  0.40912390     0.18740
H1737       H  0.14226990  0.73765617  0.44408463     0.18730
N1738       N  0.10645558  0.73395510  0.44834863    -0.87980
H1739       H  0.13929724  0.86169038  0.40083879     0.36110
H1740       H  0.15189202  0.83221422  0.38723233     0.41210
H1741       H  0.09227515  0.73684379  0.44712712     0.40830
H1742       H  0.10988738  0.73282636  0.46693371     0.35720
C1743       C  0.22359297  0.68132531  0.35540615    -0.26010
C1744       C  0.21446153  0.68146743  0.37793882    -0.14090
C1745       C  0.20673904  0.65071120  0.38650158     0.36540
C1746       C  0.20772644  0.62124926  0.37199696    -0.25460
C1747       C  0.21634134  0.62136472  0.34913680    -0.14700
C1748       C  0.22489375  0.65175385  0.34113528     0.37630
N1749       N  0.23557275  0.65352701  0.31927607    -0.88950
H1750       H  0.22992549  0.70448600  0.34877605     0.18740
H1751       H  0.20116691  0.59812960  0.37832386     0.18730
N1752       N  0.19721088  0.64962626  0.40933952    -0.87980
H1753       H  0.22797845  0.66688026  0.30621195     0.36110
H1754       H  0.23836662  0.62955158  0.31223069     0.41210
H1755       H  0.20702611  0.65289835  0.42327155     0.40830
H1756       H  0.19126345  0.62569175  0.41208980     0.35720
C1757       C  0.19980084  0.93322928  0.37070709    -0.26010
C1758       C  0.20938433  0.93505030  0.34879054    -0.14090
C1759       C  0.21832083  0.90602459  0.33969267     0.36540
C1760       C  0.21695820  0.87553770  0.35253750    -0.25460
C1761       C  0.20704907  0.87334433  0.37431847    -0.14700
C1762       C  0.19850964  0.90274046  0.38367015     0.37630
N1763       N  0.18851564  0.90171790  0.40616500    -0.88950
H1764       H  0.19296432  0.95561801  0.37748608     0.18740
H1765       H  0.22381408  0.85340616  0.34540012     0.18730
N1766       N  0.22940335  0.90667594  0.31811616    -0.87980
H1767       H  0.18236008  0.92506580  0.40965253     0.36110
H1768       H  0.19805766  0.89796691  0.42030929     0.41210
H1769       H  0.23117036  0.93114376  0.31125582     0.40830
H1770       H  0.22261810  0.89221959  0.30467415     0.35720
C1771       C  0.04781514  0.88293312  0.34898496    -0.26010
C1772       C  0.03876891  0.88189970  0.37152963    -0.14090
C1773       C  0.02920595  0.91081103  0.37940011     0.36540
C1774       C  0.02961056  0.94050627  0.36511857    -0.25460
C1775       C  0.03928078  0.94196108  0.34303257    -0.14700
C1776       C  0.04842948  0.91268505  0.33485251     0.37630
N1777       N  0.05908635  0.91364213  0.31291388    -0.88950
H1778       H  0.05526665  0.86086675  0.34289899     0.18740
H1779       H  0.02255014  0.96286647  0.37147599     0.18730
N1780       N  0.01918309  0.91000382  0.40184563    -0.87980
H1781       H  0.06471513  0.88987129  0.30930706     0.36110
H1782       H  0.07019678  0.93020429  0.31603764     0.41210
H1783       H  0.00849672  0.89226125  0.39968533     0.40830
H1784       H  0.01302030  0.93340906  0.40509576     0.35720
C1785       C  0.03258969  0.64564813  0.35770632    -0.26010
C1786       C  0.04944807  0.62898830  0.35567765    -0.14090
C1787       C  0.06554653  0.64413179  0.36555726     0.36540
C1788       C  0.06448433  0.67614316  0.37657028    -0.25460
C1789       C  0.04772106  0.69334715  0.37791889    -0.14700
C1790       C  0.03155291  0.67764405  0.36851616     0.37630
N1791       N  0.01388282  0.69316859  0.36986568    -0.88950
H1792       H  0.02014971  0.63421439  0.35014239     0.18740
H1793       H  0.07690416  0.68785293  0.38395886     0.18730
N1794       N  0.08288275  0.62705139  0.36439282    -0.87980
H1795       H  0.01408440  0.71560334  0.35974502     0.36110
H1796       H  0.01115994  0.69874431  0.38813828     0.41210
H1797       H  0.08186053  0.60514883  0.37504720     0.40830
H1798       H  0.09338327  0.64195318  0.37221912     0.35720
C1799       C  0.13780230  0.50477100  0.30464927    -0.26010
C1800       C  0.14739746  0.53257116  0.29473151    -0.14090
C1801       C  0.13721602  0.55925164  0.28374292     0.36540
C1802       C  0.11789168  0.55715062  0.28330785    -0.25460
C1803       C  0.10853082  0.53027762  0.29462073    -0.14700
C1804       C  0.11856867  0.50345513  0.30487900     0.37630
N1805       N  0.10913656  0.97518557  0.31582223    -0.88950
H1806       H  0.14539219  0.98410502  0.31281769     0.18740
H1807       H  0.11012740  0.57798500  0.27564849     0.18730
N1808       N  0.14558483  0.58959592  0.27417427    -0.87980
H1809       H  0.11852364  0.95766397  0.32277358     0.36110
H1810       H  0.10165609  0.96270678  0.30199533     0.41210
H1811       H  0.15977379  0.59027637  0.27702277     0.40830
H1812       H  0.14057528  0.61012696  0.28404526     0.35720
C1813       C  0.24551560  0.86712350  0.50297436    -0.26010
C1814       C  0.26297656  0.87749320  0.49493175    -0.14090
C1815       C  0.26958841  0.86378047  0.47282798     0.36540
C1816       C  0.25880007  0.83990194  0.45971906    -0.25460
C1817       C  0.24138640  0.82937614  0.46782686    -0.14700
C1818       C  0.23471196  0.84325863  0.48983755     0.37630
N1819       N  0.21694618  0.83345520  0.49877842    -0.88950
H1820       H  0.24036463  0.87711584  0.51998928     0.18740
H1821       H  0.26396797  0.82989943  0.44271522     0.18730
N1822       N  0.28727525  0.87382026  0.46373996    -0.87980
H1823       H  0.21382305  0.84700875  0.51461087     0.36110
H1824       H  0.21765762  0.80794396  0.50386245     0.41210
H1825       H  0.28649608  0.89941522  0.45889506     0.40830
H1826       H  0.29031514  0.86054167  0.44775623     0.35720
C1827       C  0.38932872  0.94944568  0.53049974    -0.26010
C1828       C  0.39781797  0.92060849  0.54034395    -0.14090
C1829       C  0.38678547  0.89270241  0.54755808     0.36540
C1830       C  0.36766248  0.89571650  0.54690433    -0.25460
C1831       C  0.35908730  0.92526060  0.53845994    -0.14700
C1832       C  0.37010637  0.95246007  0.52973280     0.37630
N1833       N  0.36260274  0.48408357  0.52137279    -0.88950
H1834       H  0.39771416  0.97087240  0.52487277     0.18740
H1835       H  0.35934914  0.87456314  0.55321629     0.18730
N1836       N  0.39438282  0.86099140  0.55561258    -0.87980
H1837       H  0.36760427  0.50324665  0.53300865     0.36110
H1838       H  0.34836871  0.48467933  0.52273159     0.41210
H1839       H  0.40852929  0.86019232  0.55294226     0.40830
H1840       H  0.38892897  0.84189907  0.54427592     0.35720
C1841       C  0.30961580  0.54210787  0.58619883    -0.26010
C1842       C  0.29277203  0.52485150  0.58301962    -0.14090
C1843       C  0.27692541  0.53800857  0.59439154     0.36540
C1844       C  0.27862071  0.56713224  0.60927692    -0.25460
C1845       C  0.29565151  0.58348453  0.61315863    -0.14700
C1846       C  0.31131987  0.57101205  0.60107059     0.37630
N1847       N  0.32908152  0.58730056  0.60280634    -0.88950
H1848       H  0.32181643  0.53247207  0.57750027     0.18740
H1849       H  0.26650515  0.57695087  0.61805472     0.18730
N1850       N  0.25894476  0.52306005  0.59107108    -0.87980
H1851       H  0.33793709  0.57077781  0.61195875     0.36110
H1852       H  0.32883484  0.60977741  0.61287394     0.41210
H1853       H  0.25903556  0.50328806  0.57838992     0.40830
H1854       H  0.25046750  0.54156618  0.58340271     0.35720
C1855       C  0.31001163  0.79957494  0.62619701    -0.26010
C1856       C  0.29926994  0.77219189  0.61734346    -0.14090
C1857       C  0.28812103  0.77699262  0.59627174     0.36540
C1858       C  0.28825988  0.80836921  0.58453658    -0.25460
C1859       C  0.29920245  0.83540943  0.59318857    -0.14700
C1860       C  0.31029898  0.83097106  0.61431404     0.37630
N1861       N  0.32281659  0.85662717  0.62346252    -0.88950
H1862       H  0.31878265  0.79634763  0.64214938     0.18740
H1863       H  0.27974147  0.81163899  0.56833351     0.18730
N1864       N  0.27637024  0.75085562  0.58638831    -0.87980
H1865       H  0.31805055  0.86461543  0.64045680     0.36110
H1866       H  0.32341981  0.87785659  0.61221646     0.41210
H1867       H  0.26738253  0.74270511  0.59996805     0.40830
H1868       H  0.28442841  0.73059819  0.58069283     0.35720
C1869       C  0.47231762  0.77459221  0.60356910    -0.26010
C1870       C  0.46987312  0.77616360  0.62903756    -0.14090
C1871       C  0.46757641  0.80833115  0.64007374     0.36540
C1872       C  0.46720226  0.83761923  0.62537249    -0.25460
C1873       C  0.46862564  0.83573669  0.59978583    -0.14700
C1874       C  0.47171178  0.80383359  0.58887315     0.37630
N1875       N  0.47395606  0.80102245  0.56289757    -0.88950
H1876       H  0.47425808  0.75020237  0.59485879     0.18740
H1877       H  0.46494807  0.86199716  0.63396088     0.18730
N1878       N  0.46518121  0.81133087  0.66601331    -0.87980
H1879       H  0.47567882  0.77569894  0.55773890     0.36110
H1880       H  0.48613597  0.81377164  0.55848268     0.41210
H1881       H  0.45221356  0.80131305  0.67003850     0.40830
H1882       H  0.46490492  0.83684591  0.67128069     0.35720
C1883       C  0.45481146  0.55603150  0.63693557    -0.26010
C1884       C  0.45895470  0.58600355  0.62427645    -0.14090
C1885       C  0.46242763  0.58453914  0.59899279     0.36540
C1886       C  0.46170658  0.55300368  0.58701231    -0.25460
C1887       C  0.45768120  0.52298792  0.59975096    -0.14700
C1888       C  0.45426877  0.52468240  0.62509518     0.37630
N1889       N  0.44979313  0.99529875  0.63926856    -0.88950
H1890       H  0.45212539  0.55684264  0.65635715     0.18740
H1891       H  0.46435557  0.55185920  0.56759591     0.18730
N1892       N  0.46639110  0.61494473  0.58549817    -0.87980
H1893       H  0.46095720  0.97885131  0.63924440     0.36110
H1894       H  0.43833377  0.98317507  0.63135323     0.41210
H1895       H  0.45458791  0.62984131  0.58561670     0.40830
H1896       H  0.46893952  0.60924931  0.56719466     0.35720
C1897       C  0.39138181  0.70988666  0.66119600    -0.26010
C1898       C  0.40052843  0.68413120  0.67387510    -0.14090
C1899       C  0.39008585  0.65851075  0.68562018     0.36540
C1900       C  0.37081164  0.65911667  0.68378695    -0.25460
C1901       C  0.36167420  0.68426994  0.67031874    -0.14700
C1902       C  0.37215992  0.71102849  0.65989025     0.37630
N1903       N  0.36394583  0.73990456  0.64813119    -0.88950
H1904       H  0.39931325  0.72968704  0.65234678     0.18740
H1905       H  0.36294753  0.63872046  0.69201057     0.18730
N1906       N  0.39838529  0.63068703  0.69848429    -0.87980
H1907       H  0.36940939  0.76172272  0.65651411     0.36110
H1908       H  0.34991705  0.74114313  0.65153193     0.41210
H1909       H  0.41268566  0.63202131  0.69828918     0.40830
H1910       H  0.39468613  0.60833570  0.68923555     0.35720
C1911       C  0.27505376  0.96604174  0.24149999    -0.26010
C1912       C  0.26787827  0.93600447  0.23096015    -0.14090
C1913       C  0.24911925  0.92792735  0.23423466     0.36540
C1914       C  0.23801570  0.95020954  0.24757809    -0.25460
C1915       C  0.24510956  0.98050651  0.25778508    -0.14700
C1916       C  0.26393439  0.98831164  0.25489889     0.37630
N1917       N  0.27160341  0.51925838  0.26473209    -0.88950
H1918       H  0.28937204  0.97263714  0.23877082     0.18740
H1919       H  0.22369489  0.94360340  0.25029267     0.18730
N1920       N  0.24146811  0.89676070  0.22466909    -0.87980
H1921       H  0.28521898  0.52245039  0.25923828     0.36110
H1922       H  0.27210772  0.51683003  0.28372536     0.41210
H1923       H  0.24040563  0.89926090  0.20571534     0.40830
H1924       H  0.22804295  0.89313130  0.23080161     0.35720
C1925       C  0.39431195  0.87774170  0.19892397    -0.26010
C1926       C  0.40182660  0.90603318  0.18683727    -0.14090
C1927       C  0.38996868  0.93122193  0.17758698     0.36540
C1928       C  0.37100739  0.92589969  0.17851419    -0.25460
C1929       C  0.36336722  0.89655142  0.18897455    -0.14700
C1930       C  0.37510114  0.87263156  0.20001371     0.37630
N1931       N  0.36760829  0.84259398  0.21108938    -0.88950
H1932       H  0.40343405  0.85850039  0.20606910     0.18740
H1933       H  0.36210799  0.94494956  0.17059619     0.18730
N1934       N  0.39659824  0.96226453  0.16683940    -0.87980
H1935       H  0.37812474  0.82773547  0.21843278     0.36110
H1936       H  0.36129555  0.82810651  0.19726373     0.41210
H1937       H  0.41080817  0.96494392  0.16886289     0.40830
H1938       H  0.39110059  0.98238849  0.17675944     0.35720
C1939       C  0.30648932  0.76166733  0.10012580    -0.26010
C1940       C  0.29716024  0.73296080  0.10895791    -0.14090
C1941       C  0.28802980  0.73525290  0.13157287     0.36540
C1942       C  0.28890634  0.76583983  0.14507093    -0.25460
C1943       C  0.29843631  0.79439528  0.13629406    -0.14700
C1944       C  0.30742080  0.79210813  0.11357960     0.37630
N1945       N  0.31801536  0.82033421  0.10457478    -0.88950
H1946       H  0.31369883  0.76000768  0.08297472     0.18740
H1947       H  0.28193527  0.76752699  0.16239390     0.18730
N1948       N  0.27776854  0.70670646  0.14066886    -0.87980
H1949       H  0.32361486  0.81463027  0.08757317     0.36110
H1950       H  0.32912480  0.82417714  0.11660113     0.41210
H1951       H  0.26679739  0.70218910  0.12853679     0.40830
H1952       H  0.27198730  0.71247991  0.15754663     0.35720
C1953       C  0.28565687  0.52759061  0.11357150    -0.26010
C1954       C  0.30247355  0.54478881  0.11042078    -0.14090
C1955       C  0.31877206  0.53047287  0.12000353     0.36540
C1956       C  0.31789703  0.49970696  0.13236329    -0.25460
C1957       C  0.30116241  0.98226159  0.13529318    -0.14700
C1958       C  0.28480680  0.99634010  0.12586948     0.37630
N1959       N  0.26746339  0.97924990  0.12909230    -0.88950
H1960       H  0.27314374  0.53843780  0.10621728     0.18740
H1961       H  0.33053502  0.98937278  0.13967683     0.18730
N1962       N  0.33638493  0.54680639  0.11807638    -0.87980
H1963       H  0.25685563  0.99280071  0.12070495     0.36110
H1964       H  0.26471765  0.97913340  0.14779224     0.41210
H1965       H  0.33555770  0.57135546  0.12524414     0.40830
H1966       H  0.34001928  0.54800504  0.09970187     0.35720
C1967       C  0.46643394  0.52914029  0.08613531    -0.26010
C1968       C  0.46949669  0.56013157  0.09826853    -0.14090
C1969       C  0.47274832  0.55983703  0.12383425     0.36540
C1970       C  0.47190463  0.52891119  0.13667862    -0.25460
C1971       C  0.46804430  0.49805299  0.12467415    -0.14700
C1972       C  0.46546082  0.99827638  0.09892845     0.37630
N1973       N  0.46129362  0.96742138  0.08579868    -0.88950
H1974       H  0.46392582  0.52907922  0.06658933     0.18740
H1975       H  0.47410030  0.52901228  0.15628412     0.18730
N1976       N  0.47669973  0.59089692  0.13679295    -0.87980
H1977       H  0.46070954  0.97181187  0.06698029     0.36110
H1978       H  0.44808645  0.95960070  0.09076090     0.41210
H1979       H  0.48934507  0.60010769  0.13064828     0.40830
H1980       H  0.47835181  0.58635811  0.15549457     0.35720
C1981       C  0.44339678  0.79606590  0.11559772    -0.26010
C1982       C  0.46011132  0.80984373  0.12422947    -0.14090
C1983       C  0.47653536  0.79155977  0.12105867     0.36540
C1984       C  0.47577978  0.75986479  0.10935966    -0.25460
C1985       C  0.45911400  0.74655684  0.10030627    -0.14700
C1986       C  0.44270348  0.76464257  0.10362649     0.37630
N1987       N  0.42538591  0.75091496  0.09508158    -0.88950
H1988       H  0.43077556  0.80990298  0.11817774     0.18740
H1989       H  0.48835324  0.74591581  0.10667290     0.18730
N1990       N  0.49383477  0.80472811  0.13009090    -0.87980
H1991       H  0.41469259  0.76761624  0.09875728     0.36110
H1992       H  0.42271241  0.72884222  0.10503864     0.41210
H1993       H  0.49743303  0.82535552  0.11911469     0.40830
H1994       H  0.50421980  0.78687991  0.12789107     0.35720
C1995       C  0.39146495  0.61676067  0.04450329    -0.26010
C1996       C  0.40018632  0.64861576  0.04547423    -0.14090
C1997       C  0.38934901  0.67824089  0.04685775     0.36540
C1998       C  0.37021912  0.67507185  0.04852987    -0.25460
C1999       C  0.36158660  0.64315866  0.04914118    -0.14700
C2000       C  0.37230459  0.61355561  0.04633701     0.37630
N2001       N  0.36436951  0.57995040  0.04556919    -0.88950
H2002       H  0.39967021  0.59401105  0.04345411     0.18740
H2003       H  0.36208581  0.69780917  0.05038841     0.18730
N2004       N  0.39717543  0.71189838  0.04653449    -0.87980
H2005       H  0.36781003  0.56908597  0.02881438     0.36110
H2006       H  0.35005200  0.58049131  0.04568252     0.41210
H2007       H  0.41120012  0.71179898  0.04286816     0.40830
H2008       H  0.39550372  0.72253421  0.06387306     0.35720
C2009       C  0.27480579  0.58245995  0.98957009    -0.26010
C2010       C  0.26684420  0.59733435  0.01021427    -0.14090
C2011       C  0.24769082  0.59380780  0.01334534     0.36540
C2012       C  0.23703969  0.57557666  0.99610164    -0.25460
C2013       C  0.24495589  0.56081876  0.97536589    -0.14700
C2014       C  0.26414761  0.56457846  0.97204779     0.37630
N2015       N  0.27288360  0.55013300  0.95108819    -0.88950
H2016       H  0.28950116  0.58475435  0.98701204     0.18740
H2017       H  0.22235474  0.57346461  0.99886352     0.18730
N2018       N  0.23888897  0.60865099  0.03398289    -0.87980
H2019       H  0.28716791  0.55274897  0.95253832     0.36110
H2020       H  0.26896171  0.56447733  0.93589812     0.41210
H2021       H  0.23225327  0.58927902  0.04358585     0.40830
H2022       H  0.22888734  0.62536214  0.02752886     0.35720
C2023       C  0.13810096  0.00121294  0.90967643    -0.26010
C2024       C  0.14823655  0.52050485  0.92689433    -0.14090
C2025       C  0.13871246  0.54195925  0.94316179     0.36540
C2026       C  0.11946001  0.54357972  0.94150810    -0.25460
C2027       C  0.10948357  0.52511851  0.92368248    -0.14700
C2028       C  0.11894035  0.00328844  0.90771875     0.37630
N2029       N  0.10935295  0.98333701  0.88947504    -0.88950
H2030       H  0.14540583  0.98493905  0.89717785     0.18740
H2031       H  0.11232349  0.56049152  0.95371732     0.18730
N2032       N  0.14791175  0.56405340  0.96043409    -0.87980
H2033       H  0.11822619  0.96620283  0.88119005     0.36110
H2034       H  0.10516906  0.99992790  0.87566787     0.41210
H2035       H  0.16218640  0.56316325  0.95907143     0.40830
H2036       H  0.14457044  0.55576402  0.97792467     0.35720
C2037       C  0.23581722  0.73086654  0.72834867    -0.26010
C2038       C  0.24321770  0.73744676  0.75175769    -0.14090
C2039       C  0.26151543  0.72747874  0.75687454     0.36540
C2040       C  0.27179460  0.71134668  0.73862742    -0.25460
C2041       C  0.26445009  0.70509940  0.71515649    -0.14700
C2042       C  0.24610398  0.71475910  0.71010564     0.37630
N2043       N  0.23789968  0.70830742  0.68649732    -0.88950
H2044       H  0.22176301  0.73790124  0.72427760     0.18740
H2045       H  0.28585959  0.70434284  0.74266292     0.18730
N2046       N  0.26969051  0.73361705  0.78053903    -0.87980
H2047       H  0.22455126  0.71781445  0.68557786     0.36110
H2048       H  0.23669185  0.68199089  0.68441096     0.41210
H2049       H  0.27127583  0.75987920  0.78257435     0.40830
H2050       H  0.28289787  0.72349137  0.78157670     0.35720
C2051       C  0.20920901  0.86339636  0.87644365    -0.26010
C2052       C  0.21507474  0.86397384  0.85205359    -0.14090
C2053       C  0.22161417  0.89488098  0.84228834     0.36540
C2054       C  0.22142262  0.92455406  0.85673346    -0.25460
C2055       C  0.21489818  0.92427073  0.88085015    -0.14700
C2056       C  0.20881507  0.89308415  0.89082039     0.37630
N2057       N  0.20170018  0.89163812  0.91518391    -0.88950
H2058       H  0.20414258  0.83981899  0.88410080     0.18740
H2059       H  0.22623947  0.94820861  0.84893119     0.18730
N2060       N  0.22838006  0.89616252  0.81775324    -0.87980
H2061       H  0.19846314  0.86663726  0.91998745     0.36110
H2062       H  0.18930465  0.90481929  0.91516077     0.41210
H2063       H  0.24021271  0.88137349  0.81718317     0.40830
H2064       H  0.23243120  0.92087395  0.81324354     0.35720
C2065       C  0.20209213  0.67617462  0.87307779    -0.26010
C2066       C  0.21211981  0.67786934  0.85146979    -0.14090
C2067       C  0.22176585  0.64907068  0.84335283     0.36540
C2068       C  0.22067294  0.61899851  0.85679703    -0.25460
C2069       C  0.21030435  0.61693329  0.87822276    -0.14700
C2070       C  0.20104431  0.64609906  0.88660811     0.37630
N2071       N  0.19051601  0.64521592  0.90866262    -0.88950
H2072       H  0.19466340  0.69830600  0.87913715     0.18740
H2073       H  0.22804600  0.59703678  0.85035049     0.18730
N2074       N  0.23328291  0.64956462  0.82219885    -0.87980
H2075       H  0.18394895  0.66834199  0.91151384     0.36110
H2076       H  0.19975821  0.64230558  0.92326055     0.41210
H2077       H  0.23479520  0.67386939  0.81495631     0.40830
H2078       H  0.22700613  0.63426439  0.80881313     0.35720
C2079       C  0.03132992  0.66039726  0.84094256    -0.26010
C2080       C  0.03799861  0.69044003  0.85184364    -0.14090
C2081       C  0.04367734  0.68981237  0.87669569     0.36540
C2082       C  0.04312030  0.65914328  0.88963838    -0.25460
C2083       C  0.03735352  0.62873450  0.87844505    -0.14700
C2084       C  0.03075395  0.62962597  0.85398714     0.37630
N2085       N  0.02392733  0.59929117  0.84220969    -0.88950
H2086       H  0.02674996  0.66082026  0.82204203     0.18740
H2087       H  0.04806064  0.65881119  0.90838237     0.18730
N2088       N  0.05079910  0.71990569  0.88854410    -0.87980
H2089       H  0.02020424  0.60415829  0.82405795     0.36110
H2090       H  0.01186082  0.59205520  0.85105738     0.41210
H2091       H  0.06337242  0.72589286  0.88049040     0.40830
H2092       H  0.05368582  0.71533289  0.90699247     0.35720
C2093       C  0.05607010  0.90447189  0.84159663    -0.26010
C2094       C  0.04629000  0.87670439  0.85114916    -0.14090
C2095       C  0.03578249  0.88104676  0.87244922     0.36540
C2096       C  0.03583026  0.91279606  0.88404944    -0.25460
C2097       C  0.04571666  0.94036432  0.87452970    -0.14700
C2098       C  0.05593798  0.93624113  0.85305015     0.37630
N2099       N  0.06657634  0.96392883  0.84332532    -0.88950
H2100       H  0.06403497  0.90137896  0.82516722     0.18740
H2101       H  0.02799031  0.91611989  0.90056949     0.18730
N2102       N  0.02537318  0.85332212  0.88251926    -0.87980
H2103       H  0.07303473  0.95670050  0.82719920     0.36110
H2104       H  0.07706596  0.96958607  0.85594860     0.41210
H2105       H  0.01436216  0.84830645  0.87055773     0.40830
H2106       H  0.01953071  0.86035327  0.89910997     0.35720
C2107       C  0.11599361  0.74612894  0.81419318    -0.26010
C2108       C  0.10709370  0.76927855  0.79893806    -0.14090
C2109       C  0.11764553  0.79048179  0.78354365     0.36540
C2110       C  0.13691120  0.78855813  0.78451512    -0.25460
C2111       C  0.14595214  0.76622505  0.80055827    -0.14700
C2112       C  0.13511498  0.74416719  0.81517327     0.37630
N2113       N  0.14292170  0.71980386  0.83156027    -0.88950
H2114       H  0.10795496  0.72989487  0.82604826     0.18740
H2115       H  0.14485839  0.80558189  0.77316127     0.18730
N2116       N  0.10950350  0.81550514  0.76781893    -0.87980
H2117       H  0.15060622  0.73248430  0.84507495     0.36110
H2118       H  0.15132238  0.70348583  0.82170893     0.41210
H2119       H  0.09522141  0.81566585  0.76905173     0.40830
H2120       H  0.11253354  0.80888702  0.74981988     0.35720
C2121       C  0.51590813  0.75005369  0.99375712    -0.26010
C2122       C  0.51567248  0.74092520  0.96896985    -0.14090
C2123       C  0.50517349  0.71209330  0.96148564     0.36540
C2124       C  0.49522046  0.69338160  0.97889771    -0.25460
C2125       C  0.49555322  0.70241240  0.00369350    -0.14700
C2126       C  0.50600056  0.73128195  0.01116885     0.37630
N2127       N  0.50607361  0.74225098  0.03624686    -0.88950
H2128       H  0.52393684  0.77197277  0.99963308     0.18740
H2129       H  0.48720175  0.67142900  0.97306284     0.18730
N2130       N  0.50511321  0.70105448  0.93642418    -0.87980
H2131       H  0.51303922  0.76546015  0.03821728     0.36110
H2132       H  0.51366292  0.72467273  0.04632858     0.41210
H2133       H  0.49765456  0.71876044  0.92628387     0.40830
H2134       H  0.49803779  0.67795977  0.93444095     0.35720
C2135       C  0.61995506  0.75211289  0.92985306    -0.26010
C2136       C  0.61239449  0.78473421  0.93101811    -0.14090
C2137       C  0.62425187  0.81329135  0.93299490     0.36540
C2138       C  0.64329790  0.80836143  0.93297459    -0.25460
C2139       C  0.65086037  0.77583375  0.93088379    -0.14700
C2140       C  0.63900098  0.74718023  0.92979685     0.37630
N2141       N  0.64554056  0.71311152  0.92684514    -0.88950
H2142       H  0.61090724  0.73019270  0.92793763     0.18740
H2143       H  0.65233716  0.83041616  0.93355127     0.18730
N2144       N  0.61765713  0.84756111  0.93377991    -0.87980
H2145       H  0.64176714  0.69939620  0.94234732     0.36110
H2146       H  0.65981431  0.71218995  0.92592292     0.41210
H2147       H  0.60335462  0.84850385  0.93340281     0.40830
H2148       H  0.62213905  0.85985245  0.91799657     0.35720
C2149       C  0.70773817  0.64861582  0.83624677    -0.26010
C2150       C  0.71903617  0.62207704  0.84407685    -0.14090
C2151       C  0.73036025  0.62716319  0.86506585     0.36540
C2152       C  0.72950411  0.65781474  0.87811240    -0.25460
C2153       C  0.71762014  0.68384079  0.87077440    -0.14700
C2154       C  0.70684769  0.67929738  0.84924426     0.37630
N2155       N  0.69431929  0.70507072  0.84119456    -0.88950
H2156       H  0.69895380  0.64498356  0.82030572     0.18740
H2157       H  0.73804248  0.66110950  0.89432138     0.18730
N2158       N  0.74297117  0.60197891  0.87350335    -0.87980
H2159       H  0.68616644  0.69630849  0.82658479     0.36110
H2160       H  0.70219413  0.72512512  0.83431185     0.41210
H2161       H  0.75149585  0.59531744  0.85906409     0.40830
H2162       H  0.73558579  0.58058884  0.87912549     0.35720
C2163       C  0.71232497  0.86898270  0.84949755    -0.26010
C2164       C  0.71122973  0.86927806  0.87502470    -0.14090
C2165       C  0.71028326  0.90047451  0.88758923     0.36540
C2166       C  0.70992073  0.93075395  0.87439955    -0.25460
C2167       C  0.71035856  0.93045585  0.84883514    -0.14700
C2168       C  0.71191207  0.89931294  0.83620074     0.37630
N2169       N  0.71320294  0.89858290  0.81001239    -0.88950
H2170       H  0.71320945  0.84500375  0.83986660     0.18740
H2171       H  0.70894533  0.95457277  0.88422401     0.18730
N2172       N  0.70989434  0.90158767  0.91374322    -0.87980
H2173       H  0.71404389  0.87361225  0.80364347     0.36110
H2174       H  0.72553720  0.91063722  0.80536460     0.41210
H2175       H  0.69792589  0.91399825  0.91894141     0.40830
H2176       H  0.72116900  0.91602222  0.91992018     0.35720
C2177       C  0.52377055  0.60052740  0.73144830    -0.26010
C2178       C  0.51582764  0.59017546  0.75354240    -0.14090
C2179       C  0.49835313  0.60310751  0.75963736     0.36540
C2180       C  0.48930658  0.62537980  0.74350463    -0.25460
C2181       C  0.49703409  0.63501597  0.72114927    -0.14700
C2182       C  0.51467885  0.62278966  0.71529611     0.37630
N2183       N  0.52334918  0.63283828  0.69296269    -0.88950
H2184       H  0.53728439  0.59145649  0.72678842     0.18740
H2185       H  0.47578646  0.63442748  0.74816067     0.18730
N2186       N  0.48975815  0.59378487  0.78218798    -0.87980
H2187       H  0.53608279  0.62110365  0.69118210     0.36110
H2188       H  0.52602530  0.65892102  0.69411474     0.41210
H2189       H  0.48622268  0.56804631  0.78096029     0.40830
H2190       H  0.47744634  0.60680983  0.78441426     0.35720
C2191       C  0.54097392  0.91130331  0.83615013    -0.26010
C2192       C  0.54078964  0.94257779  0.84850686    -0.14090
C2193       C  0.54071884  0.94247467  0.87443611     0.36540
C2194       C  0.54133287  0.91143181  0.88711849    -0.25460
C2195       C  0.54231542  0.88025182  0.87476474    -0.14700
C2196       C  0.54162651  0.88026204  0.84885989     0.37630
N2197       N  0.54190127  0.84888755  0.83540635    -0.88950
H2198       H  0.54089372  0.91101578  0.81636406     0.18740
H2199       H  0.54174432  0.91175908  0.90690215     0.18730
N2200       N  0.54059272  0.97378366  0.88799081    -0.87980
H2201       H  0.54199802  0.85342294  0.81660069     0.36110
H2202       H  0.52960443  0.83595329  0.83893199     0.41210
H2203       H  0.55338728  0.48558044  0.88568796     0.40830
H2204       H  0.53946175  0.96913623  0.90670796     0.35720
C2205       C  0.53585921  0.68088960  0.86695462    -0.26010
C2206       C  0.55292737  0.69317052  0.87546185    -0.14090
C2207       C  0.56892629  0.67362514  0.87200377     0.36540
C2208       C  0.56720099  0.64185059  0.86082058    -0.25460
C2209       C  0.55012491  0.62946863  0.85241092    -0.14700
C2210       C  0.53423255  0.64908772  0.85556080     0.37630
N2211       N  0.51665945  0.63730322  0.84650723    -0.88950
H2212       H  0.52365950  0.69592257  0.86967375     0.18740
H2213       H  0.57947737  0.62699637  0.85814942     0.18730
N2214       N  0.58712216  0.68529094  0.87877897    -0.87980
H2215       H  0.50668985  0.65590829  0.84884410     0.36110
H2216       H  0.51263575  0.61679479  0.85733512     0.41210
H2217       H  0.58726158  0.71059477  0.88430297     0.40830
H2218       H  0.59513016  0.68485353  0.86305699     0.35720
C2219       C  0.61907928  0.55027531  0.81988116    -0.26010
C2220       C  0.60911496  0.53404178  0.80093705    -0.14090
C2221       C  0.61882141  0.51850738  0.78175217     0.36540
C2222       C  0.63821323  0.51917020  0.78228177    -0.25460
C2223       C  0.64798253  0.53429608  0.80181662    -0.14700
C2224       C  0.63829980  0.55063559  0.82052009     0.37630
N2225       N  0.64803694  0.56770761  0.84010071    -0.88950
H2226       H  0.61184979  0.56284803  0.83446413     0.18740
H2227       H  0.64572842  0.00665097  0.76793952     0.18730
N2228       N  0.60910478  0.00159853  0.76214750    -0.87980
H2229       H  0.63887353  0.57818639  0.85252122     0.36110
H2230       H  0.65533009  0.58802212  0.83251315     0.41210
H2231       H  0.60244764  0.98041262  0.76952814     0.40830
H2232       H  0.61831049  0.99230280  0.74930067     0.35720
C2233       C  0.00596348  0.73867473  0.51473878    -0.26010
C2234       C  0.99293480  0.71388093  0.50750681    -0.14090
C2235       C  0.98969528  0.70824053  0.48234929     0.36540
C2236       C  0.99948328  0.72748225  0.46511637    -0.25460
C2237       C  0.01256005  0.75228430  0.47231492    -0.14700
C2238       C  0.01565261  0.75812820  0.49752510     0.37630
N2239       N  0.02852003  0.78381042  0.50566490    -0.88950
H2240       H  0.00825052  0.74365318  0.53401636     0.18740
H2241       H  0.99711889  0.72247019  0.44586281     0.18730
N2242       N  0.97664604  0.68280081  0.47432292    -0.87980
H2243       H  0.02944586  0.78433548  0.52473522     0.36110
H2244       H  0.02328779  0.80730559  0.50033881     0.41210
H2245       H  0.98166059  0.65922041  0.47982518     0.40830
H2246       H  0.97574133  0.68210546  0.45525420     0.35720
C2247       C  0.86965886  0.68688093  0.53276420    -0.26010
C2248       C  0.85970101  0.67695820  0.55344602    -0.14090
C2249       C  0.86937946  0.66767172  0.57496686     0.36540
C2250       C  0.88858948  0.66812329  0.57516903    -0.25460
C2251       C  0.89857261  0.67779017  0.55457971    -0.14700
C2252       C  0.88905395  0.68710748  0.53301984     0.37630
N2253       N  0.89899724  0.69778088  0.51182129    -0.88950
H2254       H  0.86230423  0.69409946  0.51628911     0.18740
H2255       H  0.89587183  0.66093458  0.59172267     0.18730
N2256       N  0.85974749  0.65830251  0.59677801    -0.87980
H2257       H  0.88991208  0.70563925  0.49806820     0.36110
H2258       H  0.90569876  0.67654725  0.50491960     0.41210
H2259       H  0.85308221  0.67992795  0.60312274     0.40830
H2260       H  0.86892317  0.65113681  0.61062968     0.35720
C2261       C  0.77212271  0.95893326  0.74130517    -0.26010
C2262       C  0.76473137  0.95183577  0.71801866    -0.14090
C2263       C  0.74644010  0.96103349  0.71274370     0.36540
C2264       C  0.73617216  0.97803851  0.73037241    -0.25460
C2265       C  0.74366308  0.98599204  0.75349508    -0.14700
C2266       C  0.76180783  0.97561654  0.75917047     0.37630
N2267       N  0.76980295  0.98199951  0.78291524    -0.88950
H2268       H  0.78617373  0.95198894  0.74550583     0.18740
H2269       H  0.72217070  0.98495282  0.72584079     0.18730
N2270       N  0.73814660  0.95311992  0.68952587    -0.87980
H2271       H  0.78354177  0.97451188  0.78351161     0.36110
H2272       H  0.76290026  0.96649622  0.79534783     0.41210
H2273       H  0.73389985  0.97579996  0.68147487     0.40830
H2274       H  0.72647297  0.93808775  0.69253904     0.35720
C2275       C  0.78633268  0.82901176  0.59859432    -0.26010
C2276       C  0.79195408  0.82805466  0.62329348    -0.14090
C2277       C  0.79569894  0.79627499  0.63409639     0.36540
C2278       C  0.79396837  0.76656866  0.61994598    -0.25460
C2279       C  0.78919234  0.76772292  0.59500880    -0.14700
C2280       C  0.78493600  0.79925471  0.58435003     0.37630
N2281       N  0.77935137  0.80102764  0.55911719    -0.88950
H2282       H  0.78327227  0.85319260  0.59019376     0.18740
H2283       H  0.79738941  0.74244633  0.62819350     0.18730
N2284       N  0.80195234  0.79418274  0.65906395    -0.87980
H2285       H  0.77687075  0.82614466  0.55404698     0.36110
H2286       H  0.76682106  0.78798061  0.55730771     0.41210
H2287       H  0.81507456  0.80521566  0.66002559     0.40830
H2288       H  0.80349562  0.76888190  0.66434435     0.35720
C2289       C  0.80555677  0.58050558  0.61992851    -0.26010
C2290       C  0.79626426  0.58141081  0.59742022    -0.14090
C2291       C  0.78829961  0.55151537  0.58764508     0.36540
C2292       C  0.79023598  0.52095659  0.60039937    -0.25460
C2293       C  0.80005307  0.51963716  0.62263492    -0.14700
C2294       C  0.80784124  0.54988498  0.63251418     0.37630
N2295       N  0.81819699  0.54957312  0.65505918    -0.88950
H2296       H  0.81180433  0.60356280  0.62718954     0.18740
H2297       H  0.78407952  0.49803100  0.59282691     0.18730
N2298       N  0.77825312  0.55233659  0.56486178    -0.87980
H2299       H  0.82207475  0.57420356  0.66026428     0.36110
H2300       H  0.83040697  0.53666006  0.65179827     0.41210
H2301       H  0.76671126  0.56747080  0.56739513     0.40830
H2302       H  0.77334953  0.52812136  0.56016128     0.35720
C2303       C  0.01226597  0.88352761  0.72999127    -0.26010
C2304       C  0.99302187  0.88232662  0.73102708    -0.14090
C2305       C  0.98451676  0.85745874  0.74586065     0.36540
C2306       C  0.99545524  0.83419381  0.75882281    -0.25460
C2307       C  0.01470828  0.83502090  0.75741548    -0.14700
C2308       C  0.02319778  0.86031090  0.74292199     0.37630
N2309       N  0.04288764  0.86299848  0.74171956    -0.88950
H2310       H  0.01886518  0.90236526  0.71858857     0.18740
H2311       H  0.98886285  0.81529815  0.77018274     0.18730
N2312       N  0.96482435  0.85499522  0.74710648    -0.87980
H2313       H  0.04683561  0.88443750  0.73178809     0.36110
H2314       H  0.04748266  0.84205441  0.73185278     0.41210
H2315       H  0.96026647  0.87649711  0.75636665     0.40830
H2316       H  0.96083805  0.83411932  0.75760999     0.35720
C2317       C  0.98279376  0.56867239  0.61238837    -0.26010
C2318       C  0.96581900  0.58258908  0.60546032    -0.14090
C2319       C  0.94944227  0.56776096  0.61427963     0.36540
C2320       C  0.95036275  0.53916891  0.62947319    -0.25460
C2321       C  0.96722999  0.52450611  0.63578572    -0.14700
C2322       C  0.98365976  0.53925093  0.62705697     0.37630
N2323       N  0.00111621  0.52498261  0.63363973    -0.88950
H2324       H  0.99535668  0.58036994  0.60592476     0.18740
H2325       H  0.93774750  0.52777514  0.63606625     0.18730
N2326       N  0.93190375  0.58214695  0.60810727    -0.87980
H2327       H  0.01183567  0.53985973  0.62675744     0.36110
H2328       H  0.00200359  0.50138293  0.62500807     0.41210
H2329       H  0.93144282  0.60630754  0.61600951     0.40830
H2330       H  0.92122024  0.56800078  0.61580676     0.35720
C2331       C  0.94944118  0.80839665  0.63958669    -0.26010
C2332       C  0.96167043  0.83415953  0.63209578    -0.14090
C2333       C  0.97360280  0.82762107  0.61245606     0.36540
C2334       C  0.97287133  0.79606756  0.60079913    -0.25460
C2335       C  0.96071429  0.77046905  0.60841588    -0.14700
C2336       C  0.94890042  0.77657690  0.62808505     0.37630
N2337       N  0.93585880  0.75113112  0.63562947    -0.88950
H2338       H  0.94013212  0.81305281  0.65448806     0.18740
H2339       H  0.98197825  0.79144256  0.58565413     0.18730
N2340       N  0.98671476  0.85211962  0.60400713    -0.87980
H2341       H  0.92727530  0.76070491  0.64912418     0.36110
H2342       H  0.94324246  0.73152959  0.64383820     0.41210
H2343       H  0.99543306  0.85899321  0.61855397     0.40830
H2344       H  0.97970710  0.87346431  0.59773507     0.35720
C2345       C  0.89053019  0.94915469  0.68924856    -0.26010
C2346       C  0.90070153  0.92426822  0.67720218    -0.14090
C2347       C  0.89139280  0.89691519  0.66551276     0.36540
C2348       C  0.87215148  0.89604734  0.66508825    -0.25460
C2349       C  0.86193922  0.92170664  0.67608367    -0.14700
C2350       C  0.87118469  0.94823383  0.68879530     0.37630
N2351       N  0.86100713  0.97503607  0.70002797    -0.88950
H2352       H  0.89768964  0.96994934  0.69836622     0.18740
H2353       H  0.86504986  0.87545496  0.65564624     0.18730
N2354       N  0.90143563  0.86975543  0.65444790    -0.87980
H2355       H  0.86992744  0.49363476  0.70716307     0.36110
H2356       H  0.85414703  0.96462765  0.71494482     0.41210
H2357       H  0.90681737  0.87889561  0.63810096     0.40830
H2358       H  0.89256957  0.84976783  0.64951119     0.35720
C2359       C  0.75004516  0.60929280  0.50824029    -0.26010
C2360       C  0.76546900  0.62712632  0.49953191    -0.14090
C2361       C  0.77147076  0.62060329  0.47554987     0.36540
C2362       C  0.76220095  0.59606541  0.46115889    -0.25460
C2363       C  0.74686762  0.57800808  0.46992651    -0.14700
C2364       C  0.74075925  0.58476537  0.49383948     0.37630
N2365       N  0.72524824  0.56665267  0.50355636    -0.88950
H2366       H  0.74551650  0.61366657  0.52674683     0.18740
H2367       H  0.76676585  0.59165970  0.44267393     0.18730
N2368       N  0.78691517  0.63888240  0.46580046    -0.87980
H2369       H  0.72234738  0.57510670  0.52119755     0.36110
H2370       H  0.72893668  0.54117446  0.50515022     0.41210
H2371       H  0.78321615  0.66438419  0.46446146     0.40830
H2372       H  0.78970979  0.63069994  0.44806117     0.35720
C2373       C  0.50902892  0.98120880  0.51034036    -0.26010
C2374       C  0.49710427  0.95424762  0.50373124    -0.14090
C2375       C  0.49678897  0.94286687  0.47912066     0.36540
C2376       C  0.50720471  0.96042053  0.46174781    -0.25460
C2377       C  0.51889992  0.98766279  0.46830106    -0.14700
C2378       C  0.51994207  0.99794968  0.49297998     0.37630
N2379       N  0.53172094  0.52577238  0.50030055    -0.88950
H2380       H  0.50936657  0.99017693  0.52906846     0.18740
H2381       H  0.50667071  0.95163152  0.44297198     0.18730
N2382       N  0.48649454  0.91338988  0.47108755    -0.87980
H2383       H  0.53105033  0.52981388  0.51914879     0.36110
H2384       H  0.52666792  0.54769105  0.49198438     0.41210
H2385       H  0.48262790  0.89846693  0.48587410     0.40830
H2386       H  0.49546134  0.89782724  0.46147641     0.35720
C2387       C  0.62439511  0.51501070  0.39579844    -0.26010
C2388       C  0.61496375  0.52395258  0.41707069    -0.14090
C2389       C  0.62515288  0.53091255  0.43871630     0.36540
C2390       C  0.64447998  0.52910262  0.43839403    -0.25460
C2391       C  0.65381651  0.52109281  0.41686451    -0.14700
C2392       C  0.64359698  0.51332470  0.39544987     0.37630
N2393       N  0.65270708  0.00347507  0.37340395    -0.88950
H2394       H  0.61674457  0.00900168  0.37921634     0.18740
H2395       H  0.65231355  0.53508398  0.45483406     0.18730
N2396       N  0.61598285  0.54022230  0.46080656    -0.87980
H2397       H  0.64320714  0.99922391  0.35921265     0.36110
H2398       H  0.65904822  0.98023842  0.37674447     0.41210
H2399       H  0.60998770  0.56388948  0.45789372     0.40830
H2400       H  0.62546339  0.54351208  0.47514633     0.35720
C2401       C  0.70528695  0.87963544  0.36395972    -0.26010
C2402       C  0.72045503  0.87106193  0.34976846    -0.14090
C2403       C  0.73648898  0.89146056  0.35099822     0.36540
C2404       C  0.73666170  0.92099565  0.36567211    -0.25460
C2405       C  0.72140615  0.92959358  0.37983978    -0.14700
C2406       C  0.70561199  0.90843699  0.37911837     0.37630
N2407       N  0.68966764  0.91695173  0.39304643    -0.88950
H2408       H  0.69303492  0.86376642  0.36310020     0.18740
H2409       H  0.74869016  0.93743637  0.36600437     0.18730
N2410       N  0.75216371  0.88300867  0.33657851    -0.87980
H2411       H  0.67932199  0.89858014  0.39068316     0.36110
H2412       H  0.68444166  0.93956377  0.38600359     0.41210
H2413       H  0.75750356  0.86037631  0.34342293     0.40830
H2414       H  0.76252783  0.90137177  0.33881668     0.35720
C2415       C  0.71374183  0.68314529  0.37233873    -0.26010
C2416       C  0.71720369  0.68315419  0.34719507    -0.14090
C2417       C  0.72083278  0.65193335  0.33530054     0.36540
C2418       C  0.72048684  0.62179337  0.34861718    -0.25460
C2419       C  0.71630890  0.62174080  0.37351048    -0.14700
C2420       C  0.71329138  0.65284796  0.38566432     0.37630
N2421       N  0.70989222  0.65367138  0.41148601    -0.88950
H2422       H  0.71107026  0.70686017  0.38163867     0.18740
H2423       H  0.72304272  0.59809191  0.33922084     0.18730
N2424       N  0.72498698  0.64977797  0.30983452    -0.87980
H2425       H  0.70764246  0.67850414  0.41743437     0.36110
H2426       H  0.72182843  0.64552165  0.42042883     0.41210
H2427       H  0.73618996  0.66573541  0.30622603     0.40830
H2428       H  0.71355647  0.65742713  0.29960306     0.35720
C2429       C  0.52584002  0.83423213  0.23036416    -0.26010
C2430       C  0.51763905  0.81757176  0.25017904    -0.14090
C2431       C  0.49879955  0.82299430  0.25473869     0.36540
C2432       C  0.48875762  0.84503694  0.23960474    -0.25460
C2433       C  0.49692366  0.86148770  0.21970143    -0.14700
C2434       C  0.51576557  0.85621609  0.21518865     0.37630
N2435       N  0.52467337  0.87330214  0.19533856    -0.88950
H2436       H  0.54033938  0.83077395  0.22700741     0.18740
H2437       H  0.47425415  0.84848754  0.24294609     0.18730
N2438       N  0.48982587  0.80595769  0.27456216    -0.87980
H2439       H  0.53846668  0.86633351  0.19434308     0.36110
H2440       H  0.52460169  0.89930826  0.19918310     0.41210
H2441       H  0.48969723  0.77998336  0.27059359     0.40830
H2442       H  0.47608642  0.81323257  0.27567454     0.35720
C2443       C  0.53481420  0.65142984  0.33702344    -0.26010
C2444       C  0.54691026  0.67801635  0.34343622    -0.14090
C2445       C  0.55878690  0.67432149  0.36383764     0.36540
C2446       C  0.55797937  0.64458212  0.37778624    -0.25460
C2447       C  0.54592174  0.61786062  0.37153996    -0.14700
C2448       C  0.53408478  0.62140037  0.35099387     0.37630
N2449       N  0.52131437  0.59471798  0.34448234    -0.88950
H2450       H  0.52573770  0.65433496  0.32134867     0.18740
H2451       H  0.56736652  0.64178404  0.39314956     0.18730
N2452       N  0.57209367  0.70039829  0.36985737    -0.87980
H2453       H  0.51373890  0.60124380  0.32886911     0.36110
H2454       H  0.51190698  0.59248198  0.35868201     0.41210
H2455       H  0.58136629  0.70189595  0.35544750     0.40830
H2456       H  0.57976082  0.69380173  0.38537546     0.35720
C2457       C  0.56924449  0.87623845  0.35725574    -0.26010
C2458       C  0.55310472  0.86626236  0.34491238    -0.14090
C2459       C  0.53759655  0.88763882  0.34505427     0.36540
C2460       C  0.53858476  0.91806260  0.35824185    -0.25460
C2461       C  0.55464767  0.92783461  0.37096826    -0.14700
C2462       C  0.57018120  0.90654609  0.37039024     0.37630
N2463       N  0.58722441  0.91525962  0.38234287    -0.88950
H2464       H  0.58122793  0.86012226  0.35685117     0.18740
H2465       H  0.52665356  0.93429399  0.35843122     0.18730
N2466       N  0.52090303  0.88007077  0.33163441    -0.87980
H2467       H  0.58517667  0.91626563  0.40117826     0.36110
H2468       H  0.59160663  0.93905565  0.37617047     0.41210
H2469       H  0.52186579  0.85790478  0.32133854     0.40830
H2470       H  0.51891645  0.89956820  0.31898794     0.35720
C2471       C  0.62265412  0.75240533  0.31677789    -0.26010
C2472       C  0.61332017  0.76585283  0.29653716    -0.14090
C2473       C  0.62346499  0.78080613  0.27751586     0.36540
C2474       C  0.64276565  0.78299235  0.27968739    -0.25460
C2475       C  0.65208290  0.77043146  0.30040160    -0.14700
C2476       C  0.64179021  0.75469433  0.31911053     0.37630
N2477       N  0.65062549  0.74168100  0.34074343    -0.88950
H2478       H  0.61486081  0.74085326  0.33137276     0.18740
H2479       H  0.65053462  0.79487884  0.26522963     0.18730
N2480       N  0.61418144  0.79509018  0.25669432    -0.87980
H2481       H  0.64114877  0.72930707  0.35192680     0.36110
H2482       H  0.65561704  0.76248661  0.35079960     0.41210
H2483       H  0.60818193  0.77502461  0.24681984     0.40830
H2484       H  0.62361445  0.80665558  0.24502424     0.35720
C2485       C  0.74949391  0.70575422  0.21417037    -0.26010
C2486       C  0.76847943  0.71228694  0.21433374    -0.14090
C2487       C  0.77584921  0.73672985  0.23083509     0.36540
C2488       C  0.76406801  0.75385281  0.24673051    -0.25460
C2489       C  0.74508905  0.74720731  0.24668023    -0.14700
C2490       C  0.73771683  0.72276762  0.23015510     0.37630
N2491       N  0.71844775  0.71431511  0.23016754    -0.88950
H2492       H  0.74378374  0.68723268  0.20144532     0.18740
H2493       H  0.76980991  0.77230342  0.25948266     0.18730
N2494       N  0.79514988  0.74495120  0.23097154    -0.87980
H2495       H  0.71557554  0.69417029  0.21819866     0.36110
H2496       H  0.71138365  0.73520912  0.22322558     0.41210
H2497       H  0.80209703  0.72409616  0.23818325     0.40830
H2498       H  0.79801539  0.76523969  0.24281566     0.35720
C2499       C  0.98798673  0.62510083  0.24645208    -0.26010
C2500       C  0.99647606  0.64042337  0.22631047    -0.14090
C2501       C  0.01495135  0.63252319  0.22144338     0.36540
C2502       C  0.02435007  0.60928168  0.23629059    -0.25460
C2503       C  0.01583515  0.59353408  0.25625684    -0.14700
C2504       C  0.99742471  0.60202455  0.26156353     0.37630
N2505       N  0.98831496  0.58748353  0.28227003    -0.88950
H2506       H  0.97377556  0.63076090  0.25028733     0.18740
H2507       H  0.03853044  0.60375166  0.23215625     0.18730
N2508       N  0.02432911  0.64800212  0.20143321    -0.87980
H2509       H  0.97458352  0.59497339  0.28275059     0.36110
H2510       H  0.99459086  0.59763432  0.29798500     0.41210
H2511       H  0.02882095  0.62873972  0.18984521     0.40830
H2512       H  0.03590680  0.66085673  0.20838431     0.35720
C2513       C  0.87047341  0.67978900  0.18920167    -0.26010
C2514       C  0.86250018  0.67667886  0.16577669    -0.14090
C2515       C  0.87388636  0.67746657  0.14512584     0.36540
C2516       C  0.89284422  0.68202652  0.14827865    -0.25460
C2517       C  0.90096718  0.68544172  0.17159901    -0.14700
C2518       C  0.88960627  0.68449758  0.19236544     0.37630
N2519       N  0.89741314  0.68803671  0.21648759    -0.88950
H2520       H  0.86169771  0.67948191  0.20504114     0.18740
H2521       H  0.90136089  0.68251048  0.13219567     0.18730
N2522       N  0.86620576  0.67322336  0.12094752    -0.87980
H2523       H  0.88723561  0.68542180  0.22968144     0.36110
H2524       H  0.90250793  0.71285434  0.21814407     0.41210
H2525       H  0.86073740  0.64861932  0.11975891     0.40830
H2526       H  0.87642881  0.67492410  0.10774428     0.35720
C2527       C  0.75749024  0.84235610  0.00649675    -0.26010
C2528       C  0.76243602  0.87457591  0.99751398    -0.14090
C2529       C  0.75924119  0.88183261  0.97253102     0.37660
C2530       C  0.75146740  0.85658535  0.95736549    -0.25460
C2531       C  0.74630952  0.82451141  0.96642667    -0.14700
C2532       C  0.74977493  0.81708334  0.99131054     0.37630
N2533       N  0.74620426  0.78419764  0.00170079    -0.88950
H2534       H  0.76031087  0.83621289  0.02546325     0.18740
H2535       H  0.74858147  0.86279642  0.93842700     0.18730
N2536       N  0.76298350  0.91458969  0.96203696    -0.87980
H2537       H  0.75865589  0.77517268  0.00871523     0.36110
H2538       H  0.74215807  0.76662050  0.98837068     0.41210
H2539       H  0.76723096  0.93217429  0.97524693     0.40830
H2540       H  0.75057706  0.92383734  0.95503915     0.35720
C2541       C  0.79512314  0.55331527  0.07439919    -0.26010
C2542       C  0.78581775  0.52532190  0.08439472    -0.14090
C2543       C  0.77828869  0.52841075  0.10801724     0.36540
C2544       C  0.78125901  0.55847622  0.12155439    -0.25460
C2545       C  0.79132402  0.58582397  0.11196691    -0.14700
C2546       C  0.79812251  0.58331170  0.08790862     0.37630
N2547       N  0.80872937  0.61058838  0.07755548    -0.88950
H2548       H  0.80102576  0.55118963  0.05639930     0.18740
H2549       H  0.77574910  0.56048729  0.13978645     0.18730
N2550       N  0.76787527  0.00090257  0.11844375    -0.87980
H2551       H  0.81235796  0.60494555  0.05958843     0.36110
H2552       H  0.82102928  0.61256969  0.08756284     0.41210
H2553       H  0.75594941  0.99763914  0.10781269     0.40830
H2554       H  0.76359141  0.00706980  0.13605020     0.35720
C2555       C  0.78939390  0.80635815  0.08208321    -0.26010
C2556       C  0.79576333  0.83571886  0.09407334    -0.14090
C2557       C  0.80188003  0.83407285  0.11849146     0.36540
C2558       C  0.80191992  0.80258650  0.13032303    -0.25460
C2559       C  0.79588595  0.77287670  0.11822365    -0.14700
C2560       C  0.78908285  0.77495596  0.09398474     0.37630
N2561       N  0.78234670  0.74527073  0.08127297    -0.88950
H2562       H  0.78451677  0.80802796  0.06333536     0.18740
H2563       H  0.80700912  0.80119107  0.14897121     0.18730
N2564       N  0.80857399  0.86406055  0.13086925    -0.87980
H2565       H  0.77892006  0.75106327  0.06316418     0.36110
H2566       H  0.77007694  0.73785027  0.08953951     0.41210
H2567       H  0.82045879  0.87221373  0.12198519     0.40830
H2568       H  0.81250433  0.85842447  0.14882657     0.35720
C2569       C  0.99503735  0.99373752  0.96835491    -0.26010
C2570       C  0.01363007  0.00007519  0.97415943    -0.14090
C2571       C  0.02043499  0.99042871  0.99742099     0.36540
C2572       C  0.00844781  0.97538256  0.01428132    -0.25460
C2573       C  0.98985159  0.96912078  0.00848473    -0.14700
C2574       C  0.98306660  0.97861161  0.98517856     0.37630
N2575       N  0.96405112  0.97331787  0.97862369    -0.88950
H2576       H  0.98970387  0.00079249  0.95054172     0.18740
H2577       H  0.01376342  0.96828866  0.03209568     0.18730
N2578       N  0.03947494  0.99552088  0.00390112    -0.87980
H2579       H  0.96158866  0.98012300  0.96043957     0.36110
H2580       H  0.95632427  0.98987428  0.98923477     0.41210
H2581       H  0.04726875  0.47872983  0.99313330     0.40830
H2582       H  0.04195504  0.98861368  0.02206058     0.35720
C2583       C  0.96343500  0.77977851  0.10974994    -0.26010
C2584       C  0.96961181  0.78194637  0.13413470    -0.14090
C2585       C  0.97451205  0.81413994  0.14388021     0.36540
C2586       C  0.97220062  0.84318060  0.12939918    -0.25460
C2587       C  0.96542107  0.84111023  0.10521388    -0.14700
C2588       C  0.96130068  0.80878501  0.09518344     0.37630
N2589       N  0.95432599  0.80539429  0.07059694    -0.88950
H2590       H  0.95959443  0.75522572  0.10218488     0.18740
H2591       H  0.97577169  0.86768452  0.13725081     0.18730
N2592       N  0.98241912  0.81845518  0.16788323    -0.87980
H2593       H  0.95084980  0.78012789  0.06668374     0.36110
H2594       H  0.96501707  0.81182773  0.05884812     0.41210
H2595       H  0.98581521  0.79534424  0.17588859     0.40830
H2596       H  0.97264370  0.83013687  0.17881822     0.35720
C2597       C  0.95348620  0.56064887  0.09349546    -0.26010
C2598       C  0.95785425  0.53061850  0.10596657    -0.14090
C2599       C  0.96357210  0.53237014  0.13070285     0.36540
C2600       C  0.96482447  0.56408077  0.14224939    -0.25460
C2601       C  0.96035673  0.59393375  0.12978950    -0.14700
C2602       C  0.95447865  0.59225389  0.10508900     0.37630
N2603       N  0.94840129  0.62137702  0.09154686    -0.88950
H2604       H  0.94893296  0.55961201  0.07458172     0.18740
H2605       H  0.96914342  0.56553223  0.16125414     0.18730
N2606       N  0.96779884  0.50210718  0.14417636    -0.87980
H2607       H  0.95797106  0.62607366  0.07783793     0.36110
H2608       H  0.94768346  0.64314997  0.10229031     0.41210
H2609       H  0.95549742  0.98823599  0.14608277     0.40830
H2610       H  0.97231446  0.50811126  0.16188850     0.35720
C2611       C  0.86527207  0.91045589  0.03524293    -0.26010
C2612       C  0.85557333  0.93623070  0.04695017    -0.14090
C2613       C  0.86527018  0.96088735  0.06095910     0.36540
C2614       C  0.88428494  0.95798717  0.06393689    -0.25460
C2615       C  0.89404194  0.93147099  0.05308003    -0.14700
C2616       C  0.88433435  0.90713765  0.03854039     0.37630
N2617       N  0.89290039  0.87786710  0.02799280    -0.88950
H2618       H  0.85778573  0.89125354  0.02482601     0.18740
H2619       H  0.89155951  0.97700934  0.07478290     0.18730
N2620       N  0.85637613  0.98919416  0.07236247    -0.87980
H2621       H  0.88620749  0.85632613  0.03479382     0.36110
H2622       H  0.90650749  0.87546897  0.03371454     0.41210
H2623       H  0.84246536  0.99024901  0.06764046     0.40830
H2624       H  0.86234609  0.51148362  0.06516221     0.35720
loop_ 
_geom_bond_atom_site_label_1 
_geom_bond_atom_site_label_2 
_geom_bond_distance 
_geom_bond_site_symmetry_2 
_ccdc_geom_bond_type 
O1           Cd6   2.441       .  S
O1         C1316   1.265       .  A
C2           O11   1.266       .  A
C2            O7   1.263       .  A
C2         C1275   1.490       .  S
O3           Cd6   2.474       .  S
O3            C9   1.266       .  A
C4           O12   1.265       .  A
C4         O1313   1.265       .  A
C4         C1286   1.477   1_565  S
C5           O10   1.264       .  A
C5            O8   1.264       .  A
C5         C1261   1.488       .  S
Cd6          O13   2.443       .  S
Cd6          O11   2.478       .  S
Cd6           O7   2.466       .  S
Cd6          O10   2.466       .  S
Cd6           O8   2.465       .  S
Cd6        O1324   2.436       .  S
C9           O13   1.265       .  A
C9         C1303   1.479       .  S
O12       Cd1318   2.436       .  S
O14         Cd19   2.457       .  S
O14          C17   1.264       .  A
C15          O24   1.263       .  A
C15          O20   1.267       .  A
C15        C1244   1.463       .  S
O16         Cd19   2.484       .  S
O16          C22   1.268       .  A
C17          O25   1.269       .  A
C17        C2542   1.490       .  S
C18          O23   1.267       .  A
C18          O21   1.262       .  A
C18        C1300   1.469       .  S
Cd19         O26   2.448       .  S
Cd19         O25   2.479       .  S
Cd19         O24   2.407       .  S
Cd19         O20   2.455       .  S
Cd19         O23   2.490       .  S
Cd19         O21   2.419       .  S
C22          O26   1.265       .  A
C22        C1216   1.482   1_554  S
O27         Cd32   2.434       .  S
O27          C30   1.264       .  A
C28          O37   1.263       .  A
C28          O33   1.267       .  A
C28        C1289   1.464       .  S
O29         Cd32   2.480       .  S
O29          C35   1.268       .  A
C30          O38   1.269       .  A
C30        C1272   1.483       .  S
C31          O36   1.270       .  A
C31          O34   1.262       .  A
C31        C1205   1.486       .  S
Cd32         O39   2.452       .  S
Cd32         O38   2.497       .  S
Cd32         O37   2.407       .  S
Cd32         O33   2.453       .  S
Cd32         O36   2.512       .  S
Cd32         O34   2.389       .  S
C35          O39   1.265       .  A
C35        C1188   1.490       .  S
O40         Cd45   2.443       .  S
O40          C43   1.262       .  A
C41          O50   1.263       .  A
C41          O46   1.265       .  A
C41        C1247   1.476       .  S
O42         Cd45   2.452       .  S
O42          C48   1.264       .  A
C43          O51   1.270       .  A
C43        C1233   1.489       .  S
C44          O49   1.268       .  A
C44          O47   1.262       .  A
C44        C1202   1.480       .  S
Cd45         O52   2.467       .  S
Cd45         O51   2.507       .  S
Cd45         O50   2.425       .  S
Cd45         O46   2.446       .  S
Cd45         O49   2.500       .  S
Cd45         O47   2.412       .  S
C48          O52   1.266       .  A
C48        C1174   1.484       .  S
O53         Cd58   2.448       .  S
O53          C56   1.265       .  A
C54          O63   1.270       .  A
C54          O59   1.262       .  A
C54        C1132   1.479       .  S
O55         Cd58   2.477       .  S
O55          C61   1.268       .  A
C56          O64   1.262       .  A
C56        C1146   1.462       .  S
C57          O62   1.270       .  A
C57          O60   1.263       .  A
C57        C1160   1.478       .  S
Cd58         O65   2.445       .  S
Cd58         O64   2.420       .  S
Cd58         O63   2.516       .  S
Cd58         O59   2.416       .  S
Cd58         O62   2.503       .  S
Cd58         O60   2.392       .  S
C61          O65   1.264       .  A
C61        C1118   1.488       .  S
O66         Cd71   2.500       .  S
O66          C69   1.265       .  A
C67          O76   1.259       .  A
C67          O72   1.267       .  A
C67        C1104   1.478       .  S
O68         Cd71   2.491       .  S
O68          C74   1.271       .  A
C69          O77   1.264       .  A
C69        C1090   1.479       .  S
C70          O75   1.265       .  A
C70          O73   1.266       .  A
C70        C1177   1.485       .  S
Cd71         O78   2.404       .  S
Cd71         O77   2.462       .  S
Cd71         O76   2.418       .  S
Cd71         O72   2.467       .  S
Cd71         O75   2.459       .  S
Cd71         O73   2.461       .  S
C74          O78   1.263       .  A
C74        C1163   1.486       .  S
O79         Cd84   2.478       .  S
O79          C82   1.263       .  A
C80          O89   1.263       .  A
C80          O85   1.268       .  A
C80        C1149   1.472       .  S
O81         Cd84   2.492       .  S
O81          C87   1.269       .  A
C82          O90   1.266       .  A
C82        C1135   1.485       .  S
C83          O88   1.267       .  A
C83          O86   1.263   1_545  A
C83        C2377   1.486   1_545  S
Cd84         O91   2.417       .  S
Cd84         O90   2.467       .  S
Cd84         O88   2.495       .  S
Cd84         O86   2.446   1_545  S
Cd84       O1401   2.417   1_545  S
Cd84       O1397   2.445   1_545  S
O85       Cd1396   2.445       .  S
C87          O91   1.265       .  A
C87        C1076   1.486       .  S
O89       Cd1396   2.417       .  S
O92       Cd1409   2.481       .  S
O92          C95   1.265       .  A
C93         O102   1.263       .  A
C93          O98   1.268       .  A
C93        C1107   1.474       .  S
O94         Cd97   2.483       .  S
O94         C100   1.269       .  A
C95         O103   1.267       .  A
C95        C1093   1.483       .  S
C96         O101   1.266       .  A
C96          O99   1.265       .  A
C96        C1051   1.490       .  S
Cd97        O104   2.417       .  S
Cd97        O102   2.408       .  S
Cd97         O98   2.462       .  S
Cd97        O101   2.476       .  S
Cd97         O99   2.456       .  S
Cd97       O1404   2.481   1_545  S
Cd97       O1415   2.470   1_545  S
C100        O104   1.265       .  A
C100       C1079   1.481       .  S
O103      Cd1409   2.470       .  S
O105       Cd110   2.475       .  S
O105        C108   1.268       .  A
C106        O115   1.266       .  A
C106        O111   1.265       .  A
C106       C2321   1.483       .  S
O107       Cd110   2.485       .  S
O107        C113   1.271       .  A
C108        O116   1.262       .  A
C108       C1020   1.480       .  S
C109        O114   1.264       .  A
C109        O112   1.265       .  A
C109        C992   1.488       .  S
Cd110       O117   2.397       .  S
Cd110       O116   2.406       .  S
Cd110       O115   2.471       .  S
Cd110       O111   2.493       .  S
Cd110       O114   2.470       .  S
Cd110       O112   2.465       .  S
C113        O117   1.264       .  A
C113       C1034   1.477       .  S
O118       Cd123   2.456       .  S
O118        C121   1.265       .  A
C119        O128   1.261       .  A
C119        O124   1.266       .  A
C119       C2293   1.480       .  S
O120       Cd123   2.466       .  S
O120        C126   1.267       .  A
C121        O129   1.268       .  A
C121        C964   1.489       .  S
C122        O127   1.264       .  A
C122        O125   1.264       .  A
C122       C1037   1.477       .  S
Cd123       O130   2.443       .  S
Cd123       O129   2.475       .  S
Cd123       O128   2.428       .  S
Cd123       O124   2.457       .  S
Cd123       O127   2.475       .  S
Cd123       O125   2.443       .  S
C126        O130   1.264       .  A
C126        C950   1.482       .  S
O131       Cd136   2.511       .  S
O131        C134   1.265       .  A
C132        O141   1.262       .  A
C132        O137   1.265       .  A
C132       C1023   1.470       .  S
O133       Cd136   2.480       .  S
O133        C139   1.268       .  A
C134        O142   1.264       .  A
C134       C1006   1.484       .  S
C135        O140   1.268       .  A
C135        O138   1.264       .  A
C135        C939   1.479       .  S
Cd136       O143   2.454       .  S
Cd136       O142   2.464       .  S
Cd136       O141   2.431       .  S
Cd136       O137   2.465       .  S
Cd136       O140   2.499       .  S
Cd136       O138   2.416       .  S
C139        O143   1.266       .  A
C139        C922   1.488       .  S
O144       Cd149   2.451       .  S
O144        C147   1.267       .  A
C145        O154   1.268       .  A
C145        O150   1.263       .  A
C145        C967   1.485       .  S
O146       Cd149   2.522       .  S
O146        C152   1.268       .  A
C147        O155   1.263       .  A
C147        C978   1.467       .  S
C148        O153   1.268       .  A
C148        O151   1.267       .  A
C148       C1048   1.489       .  S
Cd149       O156   2.399       .  S
Cd149       O155   2.417       .  S
Cd149       O154   2.498       .  S
Cd149       O150   2.444       .  S
Cd149       O153   2.465       .  S
Cd149       O151   2.455       .  S
C152        O156   1.259       .  A
C152        C936   1.484       .  S
O157       Cd162   2.459       .  S
O157       C1472   1.262   1_545  A
C158        O167   1.263       .  A
C158        O163   1.266       .  A
C158        C897   1.469       .  S
O159       Cd162   2.511       .  S
O159        C165   1.271       .  A
C160        O168   1.269       .  A
C160       O1469   1.262       .  A
C160        C880   1.497       .  S
C161        O166   1.267       .  A
C161        O164   1.263       .  A
C161        C866   1.498       .  S
Cd162       O169   2.395       .  S
Cd162       O167   2.412       .  S
Cd162       O163   2.454       .  S
Cd162       O166   2.509       .  S
Cd162       O164   2.469       .  S
Cd162      O1480   2.515   1_545  S
C165        O169   1.264       .  A
C165        C908   1.486       .  S
O168      Cd1474   2.515       .  S
O170      Cd1487   2.447       .  S
O170        C173   1.266       .  A
C171        O180   1.268       .  A
C171        O176   1.263       .  A
C171        C838   1.486       .  S
O172       Cd175   2.460       .  S
O172       C1490   1.267       .  A
C173        O181   1.263       .  A
C173        C855   1.469       .  S
C174        O179   1.267       .  A
C174        O177   1.264       .  A
C174        C911   1.477       .  S
Cd175       O182   2.450       .  S
Cd175       O180   2.468       .  S
Cd175       O176   2.461       .  S
Cd175       O179   2.491       .  S
Cd175       O177   2.423       .  S
Cd175      O1482   2.447   1_545  S
Cd175      O1493   2.420   1_545  S
C178       O1484   1.267       .  A
C178       O1494   1.264       .  A
C178        C953   1.487       .  S
O181      Cd1487   2.420       .  S
O182       C1490   1.264       .  A
O183       Cd188   2.468       .  S
O183        C186   1.262       .  A
C184        O193   1.265       .  A
C184        O189   1.268       .  A
C184        C894   1.465       .  S
O185       Cd188   2.512       .  S
O185        C191   1.269       .  A
C186        O194   1.269       .  A
C186        C883   1.497       .  S
C187        O192   1.268       .  A
C187        O190   1.262       .  A
C187        C810   1.492       .  S
Cd188       O195   2.426       .  S
Cd188       O194   2.516       .  S
Cd188       O193   2.410       .  S
Cd188       O189   2.439       .  S
Cd188       O192   2.510       .  S
Cd188       O190   2.457       .  S
C191        O195   1.260       .  A
C191        C824   1.474       .  S
O196       Cd201   2.430       .  S
O196        C199   1.261       .  A
C197        O206   1.264       .  A
C197        O202   1.269       .  A
C197        C852   1.468       .  S
O198       Cd201   2.512       .  S
O198        C204   1.269       .  A
C199        O207   1.269       .  A
C199        C841   1.489       .  S
C200        O205   1.268       .  A
C200        O203   1.264       .  A
C200       C1219   1.482       .  S
Cd201       O208   2.416       .  S
Cd201       O207   2.522       .  S
Cd201       O206   2.398       .  S
Cd201       O202   2.444       .  S
Cd201       O205   2.484       .  S
Cd201       O203   2.449       .  S
C204        O208   1.260       .  A
C204        C827   1.474       .  S
O209       Cd214   2.420       .  S
O209        C212   1.262       .  A
C210        O219   1.264       .  A
C210        O215   1.264       .  A
C210        C782   1.475       .  S
O211       Cd214   2.489       .  S
O211        C217   1.269       .  A
C212        O220   1.271       .  A
C212        C768   1.488       .  S
C213        O218   1.264       .  A
C213        O216   1.266       .  A
C213        C995   1.488       .  S
Cd214       O221   2.422       .  S
Cd214       O220   2.507       .  S
Cd214       O219   2.416       .  S
Cd214       O215   2.440       .  S
Cd214       O218   2.448       .  S
Cd214       O216   2.479       .  S
C217        O221   1.264       .  A
C217        C796   1.471       .  S
O222       Cd227   2.446       .  S
O222        C225   1.266       .  A
C223        O232   1.268       .  A
C223        O228   1.263       .  A
C223        C740   1.493       .  S
O224       Cd227   2.489       .  S
O224        C230   1.268       .  A
C225        O233   1.264       .  A
C225        C754   1.466       .  S
C226        O231   1.268       .  A
C226        O229   1.258       .  A
C226        C799   1.490       .  S
Cd227       O234   2.474       .  S
Cd227       O233   2.434       .  S
Cd227       O232   2.516       .  S
Cd227       O228   2.465       .  S
Cd227       O231   2.519       .  S
Cd227       O229   2.424       .  S
C230        O234   1.265       .  A
C230        C726   1.496       .  S
O235       Cd240   2.467       .  S
O235        C238   1.263       .  A
C236        O245   1.264       .  A
C236        O241   1.266       .  A
C236        C785   1.469       .  S
O237       Cd240   2.515       .  S
O237        C243   1.268       .  A
C238        O246   1.267       .  A
C238        C771   1.489       .  S
C239        O244   1.267       .  A
C239        O242   1.266       .  A
C239       C2570   1.488       .  S
Cd240       O247   2.415       .  S
Cd240       O246   2.472       .  S
Cd240       O244   2.467       .  S
Cd240       O242   2.449       .  S
Cd240      O1557   2.421   1_545  S
Cd240      O1553   2.438       .  S
O241      Cd1552   2.438       .  S
C243        O247   1.259       .  A
C243        C715   1.487       .  S
O245      Cd1552   2.421       .  S
O248      Cd1565   2.470       .  S
O248        C251   1.264       .  A
C249        O258   1.262       .  A
C249        O254   1.267       .  A
C249        C757   1.480       .  S
O250       Cd253   2.492       .  S
O250        C256   1.269       .  A
C251        O259   1.268       .  A
C251        C743   1.495       .  S
C252        O257   1.266       .  A
C252        O255   1.264       .  A
C252        C701   1.493       .  S
Cd253       O260   2.418       .  S
Cd253       O258   2.422       .  S
Cd253       O254   2.468       .  S
Cd253       O257   2.484       .  S
Cd253       O255   2.471       .  S
Cd253      O1560   2.470   1_545  S
Cd253      O1571   2.500   1_545  S
C256        O260   1.264       .  A
C256        C712   1.475       .  S
O259      Cd1565   2.500       .  S
O261       Cd266   2.447       .  S
O261        C264   1.269       .  A
C262        O271   1.267       .  A
C262        O267   1.262       .  A
C262        C656   1.493       .  S
O263       Cd266   2.511       .  S
O263        C269   1.269       .  A
C264        O272   1.265       .  A
C264        C673   1.469       .  S
C265        O270   1.268       .  A
C265        O268   1.261       .  A
C265        C813   1.491       .  S
Cd266       O273   2.429       .  S
Cd266       O272   2.404       .  S
Cd266       O271   2.502       .  S
Cd266       O267   2.472       .  S
Cd266       O270   2.518       .  S
Cd266       O268   2.461       .  S
C269        O273   1.261       .  A
C269        C684   1.476       .  S
O274       Cd279   2.475       .  S
O274        C277   1.267       .  A
C275        O284   1.266       .  A
C275        O280   1.264       .  A
C275        C628   1.491       .  S
O276       Cd279   2.487       .  S
O276        C282   1.269       .  A
C277        O285   1.262       .  A
C277        C642   1.475       .  S
C278        O283   1.264       .  A
C278        O281   1.264       .  A
C278        C698   1.492       .  S
Cd279       O286   2.443       .  S
Cd279       O285   2.417       .  S
Cd279       O284   2.491       .  S
Cd279       O280   2.496       .  S
Cd279       O283   2.481       .  S
Cd279       O281   2.488       .  S
C282        O286   1.265       .  A
C282        C687   1.476       .  S
O287       Cd292   2.444       .  S
O287        C290   1.262       .  A
C288        O297   1.270       .  A
C288        O293   1.261       .  A
C288       C1971   1.494       .  S
O289       Cd292   2.495       .  S
O289        C295   1.267       .  A
C290        O298   1.263       .  A
C290        C670   1.474       .  S
C291        O296   1.267       .  A
C291        O294   1.264       .  A
C291       C1121   1.487       .  S
Cd292       O299   2.429       .  S
Cd292       O298   2.443       .  S
Cd292       O297   2.518       .  S
Cd292       O293   2.445       .  S
Cd292       O296   2.474       .  S
Cd292       O294   2.457       .  S
C295        O299   1.265       .  A
C295        C614   1.475       .  S
O300       Cd305   2.453       .  S
O300        C303   1.263       .  A
C301        O310   1.261       .  A
C301        O306   1.269       .  A
C301        C645   1.475       .  S
O302       Cd305   2.484       .  S
O302        C308   1.265       .  A
C303        O311   1.269       .  A
C303        C631   1.490       .  S
C304        O309   1.272       .  A
C304        O307   1.262       .  A
C304        C617   1.481       .  S
Cd305       O312   2.482       .  S
Cd305       O311   2.522       .  S
Cd305       O310   2.395       .  S
Cd305       O306   2.488       .  S
Cd305       O309   2.531       .  S
Cd305       O307   2.383       .  S
C308        O312   1.265       .  A
C308        C600   1.490       .  S
O313       Cd318   2.456       .  S
O313        C316   1.266       .  A
C314        O323   1.269       .  A
C314        O319   1.264       .  A
C314        C558   1.495       .  S
O315       Cd318   2.502       .  S
O315        C321   1.268       .  A
C316        O324   1.264       .  A
C316        C572   1.474       .  S
C317        O322   1.268       .  A
C317        O320   1.265       .  A
C317        C869   1.496       .  S
Cd318       O325   2.438       .  S
Cd318       O324   2.418       .  S
Cd318       O323   2.505       .  S
Cd318       O319   2.454       .  S
Cd318       O322   2.495       .  S
Cd318       O320   2.476       .  S
C321        O325   1.262       .  A
C321        C586   1.476       .  S
O326       Cd331   2.456       .  S
O326        C329   1.265       .  A
C327        O336   1.265       .  A
C327        O332   1.263       .  A
C327        C533   1.482       .  S
O328       Cd331   2.493       .  S
O328        C334   1.269       .  A
C329        O337   1.264       .  A
C329        C544   1.482       .  S
C330        O335   1.266       .  A
C330        O333   1.262       .  A
C330        C729   1.495       .  S
Cd331       O338   2.444       .  S
Cd331       O337   2.442       .  S
Cd331       O336   2.497       .  S
Cd331       O332   2.497       .  S
Cd331       O335   2.502       .  S
Cd331       O333   2.476       .  S
C334        O338   1.265       .  A
C334        C589   1.484       .  S
O339       Cd344   2.456       .  S
O339        C342   1.264       .  A
C340        O349   1.263       .  A
C340        O345   1.262       .  A
C340       C1887   1.475       .  S
O341       Cd344   2.469       .  S
O341        C347   1.266       .  A
C342        O350   1.269       .  A
C342        C561   1.492       .  S
C343        O348   1.263       .  A
C343        O346   1.263       .  A
C343        C516   1.477       .  S
Cd344       O351   2.465       .  S
Cd344       O350   2.495       .  S
Cd344       O349   2.452       .  S
Cd344       O345   2.448       .  S
Cd344       O348   2.494       .  S
Cd344       O346   2.456       .  S
C347        O351   1.265       .  A
C347       C1062   1.487       .  S
O352       Cd357   2.493       .  S
O352       C1667   1.266       .  A
C353        O362   1.262       .  A
C353        O358   1.268       .  A
C353        C547   1.468       .  S
O354       Cd357   2.476       .  S
O354        C360   1.266       .  A
C355        O363   1.266       .  A
C355       O1664   1.266       .  A
C355        C530   1.486   1_565  S
C356        O361   1.269       .  A
C356        O359   1.264       .  A
C356        C519   1.478       .  S
Cd357       O364   2.478       .  S
Cd357       O362   2.416       .  S
Cd357       O358   2.475       .  S
Cd357       O361   2.495       .  S
Cd357       O359   2.421       .  S
Cd357      O1675   2.480       .  S
C360        O364   1.266       .  A
C360        C502   1.495       .  S
O363      Cd1669   2.480       .  S
O365      Cd1682   2.450       .  S
O365        C368   1.264       .  A
C366        O375   1.262       .  A
C366        O371   1.263       .  A
C366        C474   1.470       .  S
O367       Cd370   2.490       .  S
O367        C373   1.268       .  A
C368        O376   1.270       .  A
C368        C463   1.488       .  S
C369        O374   1.265       .  A
C369        O372   1.265       .  A
C369       C1191   1.492       .  S
Cd370       O377   2.428       .  S
Cd370       O375   2.435       .  S
Cd370       O371   2.445       .  S
Cd370       O374   2.471       .  S
Cd370       O372   2.477       .  S
Cd370      O1677   2.450       .  S
Cd370      O1688   2.496   1_545  S
C373        O377   1.265       .  A
C373        C491   1.475       .  S
O376      Cd1682   2.495       .  S
O378       Cd383   2.447       .  S
O378        C381   1.264       .  A
C379        O388   1.262       .  A
C379        O384   1.266       .  A
C379        C446   1.461       .  S
O380       Cd383   2.512       .  S
O380        C386   1.269       .  A
C381        O389   1.271       .  A
C381        C435   1.490       .  S
C382        O387   1.265       .  A
C382        O385   1.267       .  A
C382       C1915   1.489   1_545  S
Cd383       O390   2.416       .  S
Cd383       O389   2.508       .  S
Cd383       O387   2.464       .  S
Cd383       O385   2.493       .  S
Cd383      O1700   2.418   1_545  S
Cd383      O1696   2.452   1_545  S
O384      Cd1695   2.452       .  S
C386        O390   1.262       .  A
C386        C488   1.485       .  S
O388      Cd1695   2.418       .  S
O391       Cd396   2.450       .  S
O391        C394   1.262       .  A
C392        O401   1.263       .  A
C392        O397   1.266       .  A
C392        C477   1.473       .  S
O393       Cd396   2.496       .  S
O393        C399   1.268       .  A
C394        O402   1.269       .  A
C394        C460   1.488       .  S
C395        O400   1.269       .  A
C395        O398   1.265       .  A
C395        C925   1.492       .  S
Cd396       O403   2.427       .  S
Cd396       O402   2.512       .  S
Cd396       O401   2.413       .  S
Cd396       O397   2.449       .  S
Cd396       O400   2.489       .  S
Cd396       O398   2.450       .  S
C399        O403   1.263       .  A
C399        C418   1.473       .  S
O404       Cd409   2.476       .  S
O404        C407   1.264       .  A
C405        O414   1.261       .  A
C405        O410   1.269       .  A
C405        C449   1.477       .  S
O406       Cd409   2.500       .  S
O406        C412   1.270       .  A
C407        O415   1.268       .  A
C407        C432   1.494       .  S
C408        O413   1.266       .  A
C408        O411   1.264       .  A
C408        C505   1.495       .  S
Cd409       O416   2.410       .  S
Cd409       O415   2.496       .  S
Cd409       O414   2.401       .  S
Cd409       O410   2.463       .  S
Cd409       O413   2.488       .  S
Cd409       O411   2.467       .  S
C412        O416   1.263       .  A
C412        C421   1.478       .  S
C417        C418   1.400       .  A
C417        C422   1.401       .  A
C417        H424   1.084       .  S
C418        C419   1.420       .  A
C419        C420   1.405       .  A
C419        N426   1.438       .  S
C420        C421   1.402       .  A
C420        H425   1.084       .  S
C421        C422   1.414       .  A
C422        N423   1.439       .  S
N423        H427   1.046       .  S
N423        H428   1.045       .  S
N426        H429   1.041       .  S
N426        H430   1.046       .  S
C431        C432   1.409       .  A
C431        C436   1.406       .  A
C431        H438   1.084       .  S
C432        C433   1.414       .  A
C433        C434   1.408       .  A
C433        N440   1.438       .  S
C434        C435   1.407       .  A
C434        H439   1.084       .  S
C435        C436   1.417       .  A
C436        N437   1.437       .  S
N437        H441   1.045       .  S
N437        H442   1.042       .  S
N440        H443   1.045       .  S
N440        H444   1.046       .  S
C445        C446   1.397       .  A
C445        C450   1.400       .  A
C445        H452   1.084       .  S
C446        C447   1.414       .  A
C447        C448   1.397       .  A
C447        N454   1.439       .  S
C448        C449   1.404       .  A
C448        H453   1.084       .  S
C449        C450   1.418       .  A
C450        N451   1.439       .  S
N451        H455   1.046       .  S
N451        H456   1.046       .  S
N454        H457   1.043       .  S
N454        H458   1.045       .  S
C459        C460   1.407       .  A
C459        C464   1.407       .  A
C459        H466   1.084       .  S
C460        C461   1.411       .  A
C461        C462   1.409       .  A
C461        N468   1.437       .  S
C462        C463   1.408       .  A
C462        H467   1.083       .  S
C463        C464   1.413       .  A
C464        N465   1.438       .  S
N465        H469   1.046       .  S
N465        H470   1.046       .  S
N468        H471   1.046       .  S
N468        H472   1.046       .  S
C473        C474   1.403       .  A
C473        C478   1.395       .  A
C473        H480   1.084       .  S
C474        C475   1.410       .  A
C475        C476   1.400       .  A
C475        N482   1.438       .  S
C476        C477   1.405       .  A
C476        H481   1.084       .  S
C477        C478   1.414       .  A
C478        N479   1.433       .  S
N479        H483   1.045       .  S
N479        H484   1.046       .  S
N482        H485   1.046       .  S
N482        H486   1.046       .  S
C487        C488   1.407       .  A
C487        C492   1.400       .  A
C487       H1806   1.084   1_545  S
C488        C489   1.423       .  A
C489        C490   1.408       .  A
C489        N496   1.439       .  S
C490        C491   1.403       .  A
C490        H495   1.084       .  S
C491        C492   1.406       .  A
C492       N1805   1.438   1_545  S
N493       C1804   1.438       .  S
N493        H497   1.046       .  S
N493        H498   1.046       .  S
H494       C1799   1.084       .  S
N496        H499   1.042       .  S
N496        H500   1.043       .  S
C501        C502   1.407       .  A
C501        C506   1.409       .  A
C501        H508   1.083       .  S
C502        C503   1.416       .  A
C503        C504   1.408       .  A
C503        N510   1.438       .  S
C504        C505   1.407       .  A
C504        H509   1.083       .  S
C505        C506   1.416       .  A
C506        N507   1.438       .  S
N507        H511   1.046       .  S
N507        H512   1.046       .  S
N510        H513   1.046       .  S
N510        H514   1.046       .  S
C515        C516   1.405       .  A
C515        C520   1.405       .  A
C515        H522   1.084       .  S
C516        C517   1.415       .  A
C517        C518   1.398       .  A
C517        N524   1.440       .  S
C518        C519   1.404       .  A
C518        H523   1.085       .  S
C519        C520   1.419       .  A
C520       N1833   1.439       .  S
N521       C1832   1.439       .  S
N521        H525   1.046   1_565  S
N521        H526   1.040       .  S
N524        H527   1.042       .  S
N524        H528   1.046       .  S
C529        C530   1.404       .  A
C529        C534   1.402       .  A
C529        H536   1.085       .  S
C530        C531   1.420       .  A
C531        C532   1.409       .  A
C531        N538   1.439       .  S
C532        C533   1.404       .  A
C532        H537   1.084       .  S
C533        C534   1.417       .  A
C534        N535   1.439       .  S
N535        H539   1.045       .  S
N535        H540   1.042       .  S
N538        H541   1.042       .  S
N538        H542   1.046       .  S
C543        C544   1.407       .  A
C543        C548   1.400       .  A
C543        H550   1.084       .  S
C544        C545   1.416       .  A
C545        C546   1.395       .  A
C545        N552   1.432       .  S
C546        C547   1.401       .  A
C546        H551   1.085       .  S
C547        C548   1.415       .  A
C548        N549   1.438       .  S
N549        H553   1.046       .  S
N549        H554   1.041       .  S
N552        H555   1.045       .  S
N552        H556   1.045       .  S
C557        C558   1.409       .  A
C557        C562   1.408       .  A
C557        H564   1.083       .  S
C558        C559   1.415       .  A
C559        C560   1.409       .  A
C559        N566   1.438       .  S
C560        C561   1.408       .  A
C560        H565   1.083       .  S
C561        C562   1.412       .  A
C562        N563   1.438       .  S
N563        H567   1.046       .  S
N563        H568   1.046       .  S
N566        H569   1.045       .  S
N566        H570   1.046       .  S
C571        C572   1.403       .  A
C571        C576   1.393       .  A
C571        H578   1.084       .  S
C572        C573   1.411       .  A
C573        C574   1.404       .  A
C573        N580   1.438       .  S
C574        C575   1.405       .  A
C574        H579   1.084       .  S
C575       C1652   1.475   1_545  S
C575        C576   1.414       .  A
C576       N1889   1.433   1_545  S
N577       C1888   1.433       .  S
N577        H581   1.045       .  S
N577        H582   1.045       .  S
N580        H583   1.046       .  S
N580        H584   1.046       .  S
C585        C586   1.401       .  A
C585        C590   1.401       .  A
C585        H592   1.085       .  S
C586        C587   1.418       .  A
C587        C588   1.406       .  A
C587        N594   1.439       .  S
C588        C589   1.405       .  A
C588        H593   1.084       .  S
C589        C590   1.420       .  A
C590        N591   1.441       .  S
N591        H595   1.046       .  S
N591        H596   1.042       .  S
N594        H597   1.042       .  S
N594        H598   1.046       .  S
C599        C600   1.408       .  A
C599        C604   1.411       .  A
C599        H606   1.084       .  S
C600        C601   1.412       .  A
C601        C602   1.409       .  A
C601        N608   1.438       .  S
C602        C603   1.407       .  A
C602        H607   1.084       .  S
C603       C1694   1.489       .  S
C603        C604   1.412       .  A
C604       N1917   1.438       .  S
N605       C1916   1.438   1_545  S
N605        H609   1.046       .  S
N605        H610   1.045       .  S
N608        H611   1.045       .  S
N608        H612   1.046       .  S
C613        C614   1.407       .  A
C613        C618   1.412       .  A
C613        H620   1.084       .  S
C614        C615   1.413       .  A
C615        C616   1.395       .  A
C615        N622   1.440       .  S
C616        C617   1.405       .  A
C616        H621   1.084       .  S
C617        C618   1.411       .  A
C618        N619   1.437       .  S
N619        H623   1.046       .  S
N619        H624   1.046       .  S
N622        H625   1.043       .  S
N622        H626   1.046       .  S
C627        C628   1.403       .  A
C627        C632   1.407       .  A
C627        H634   1.084       .  S
C628        C629   1.416       .  A
C629        C630   1.413       .  A
C629        N636   1.437       .  S
C630        C631   1.405       .  A
C630        H635   1.083       .  S
C631        C632   1.415       .  A
C632        N633   1.439       .  S
N633        H637   1.046       .  S
N633        H638   1.046       .  S
N636        H639   1.046       .  S
N636        H640   1.046       .  S
C641        C642   1.405       .  A
C641       C1958   1.407   1_545  A
C641        H648   1.084       .  S
C642        C643   1.414       .  A
C643        C644   1.391   1_545  A
C643        N650   1.433       .  S
C644       C1957   1.403       .  A
C644       H1961   1.084       .  S
C645        C646   1.411       .  A
C645       C1956   1.403       .  A
C646       C1953   1.407       .  A
C646        N647   1.437       .  S
N647        H651   1.046       .  S
N647        H652   1.046       .  S
H649       C1956   1.084       .  S
N650        H653   1.046       .  S
N650        H654   1.045       .  S
C655        C656   1.403       .  A
C655       C1972   1.407   1_545  A
C655        H662   1.083       .  S
C656        C657   1.417       .  A
C657        C658   1.410       .  A
C657        N664   1.438       .  S
C658        C659   1.405   1_545  A
C658        H663   1.083       .  S
C659       C1600   1.494       .  S
C659       C1972   1.419       .  A
C660       C1967   1.407       .  A
C660       C1971   1.419       .  A
C660        N661   1.438       .  S
N661        H665   1.046       .  S
N661        H666   1.046       .  S
N664        H667   1.046       .  S
N664        H668   1.046       .  S
C669        C670   1.403       .  A
C669        C674   1.400       .  A
C669        H676   1.084       .  S
C670        C671   1.414       .  A
C671        C672   1.402       .  A
C671        N678   1.438       .  S
C672        C673   1.401       .  A
C672        H677   1.084       .  S
C673        C674   1.411       .  A
C674        N675   1.439       .  S
N675        H679   1.046       .  S
N675        H680   1.046       .  S
N678        H681   1.045       .  S
N678        H682   1.046       .  S
C683        C684   1.401       .  A
C683        C688   1.404       .  A
C683        H690   1.084       .  S
C684        C685   1.418       .  A
C685        C686   1.401       .  A
C685        N692   1.438       .  S
C686        C687   1.401       .  A
C686        H691   1.084       .  S
C687        C688   1.419       .  A
C688        N689   1.439       .  S
N689        H693   1.046       .  S
N689        H694   1.043       .  S
N692        H695   1.043       .  S
N692        H696   1.046       .  S
C697        C698   1.406   1_556  A
C697        C702   1.409       .  A
C697        H704   1.083       .  S
C698        C699   1.412       .  A
C699        C700   1.405   1_554  A
C699        N706   1.432       .  S
C700        C701   1.407       .  A
C700        H705   1.084       .  S
C701        C702   1.417       .  A
C702        N703   1.438       .  S
N703        H707   1.046       .  S
N703        H708   1.045       .  S
N706        H709   1.046       .  S
N706        H710   1.046       .  S
C711        C716   1.400       .  A
C711       C2024   1.399       .  A
C711        H718   1.084       .  S
C712        C713   1.419       .  A
C712       C2023   1.399       .  A
C713        C714   1.405       .  A
C713        N720   1.438       .  S
C714        C715   1.406       .  A
C714        H719   1.084       .  S
C715       C2028   1.418       .  A
C716       C2027   1.418       .  A
C716        N717   1.439       .  S
N717        H721   1.046       .  S
N717        H722   1.045       .  S
N720        H723   1.043       .  S
N720        H724   1.043       .  S
C725        C726   1.406       .  A
C725        C730   1.409       .  A
C725        H732   1.083       .  S
C726        C727   1.417       .  A
C727        C728   1.410       .  A
C727        N734   1.438       .  S
C728        C729   1.406       .  A
C728        H733   1.083       .  S
C729        C730   1.416       .  A
C730        N731   1.438       .  S
N731        H735   1.046       .  S
N731        H736   1.046       .  S
N734        H737   1.046       .  S
N734        H738   1.046       .  S
C739        C740   1.407       .  A
C739        C744   1.409       .  A
C739        H746   1.083       .  S
C740        C741   1.412       .  A
C741        C742   1.410       .  A
C741        N748   1.437       .  S
C742        C743   1.409       .  A
C742        H747   1.083       .  S
C743        C744   1.415       .  A
C744        N745   1.438       .  S
N745        H749   1.046       .  S
N745        H750   1.046       .  S
N748        H751   1.046       .  S
N748        H752   1.046       .  S
C753        C754   1.399       .  A
C753        C758   1.401       .  A
C753        H760   1.084       .  S
C754        C755   1.414       .  A
C755        C756   1.399       .  A
C755        N762   1.438       .  S
C756        C757   1.405       .  A
C756        H761   1.084       .  S
C757        C758   1.417       .  A
C758        N759   1.439       .  S
N759        H763   1.046       .  S
N759        H764   1.046       .  S
N762        H765   1.043       .  S
N762        H766   1.045       .  S
C767        C768   1.404       .  A
C767        C772   1.410       .  A
C767        H774   1.083       .  S
C768        C769   1.418       .  A
C769        C770   1.403       .  A
C769        N776   1.439       .  S
C770        C771   1.402       .  A
C770        H775   1.083       .  S
C771        C772   1.418       .  A
C772        N773   1.438       .  S
N773        H777   1.046       .  S
N773        H778   1.046       .  S
N776        H779   1.046       .  S
N776        H780   1.046       .  S
C781        C782   1.405       .  A
C781        C786   1.399       .  A
C781        H788   1.084       .  S
C782        C783   1.414       .  A
C783        C784   1.401       .  A
C783        N790   1.438       .  S
C784        C785   1.402       .  A
C784        H789   1.084       .  S
C785        C786   1.409       .  A
C786        N787   1.438       .  S
N787        H791   1.046       .  S
N787        H792   1.045       .  S
N790        H793   1.045       .  S
N790        H794   1.046       .  S
C795        C796   1.397       .  A
C795        C800   1.395       .  A
C795        H802   1.085       .  S
C796        C797   1.416       .  A
C797        C798   1.405       .  A
C797        N804   1.438       .  S
C798        C799   1.408       .  A
C798        H803   1.084       .  S
C799        C800   1.422       .  A
C800        N801   1.433       .  S
N801        H805   1.045       .  S
N801        H806   1.045       .  S
N804        H807   1.043       .  S
N804        H808   1.046       .  S
C809        C810   1.403       .  A
C809        C814   1.409   1_556  A
C809        H816   1.084       .  S
C810        C811   1.419       .  A
C811        C812   1.410       .  A
C811        N818   1.438       .  S
C812        C813   1.402   1_556  A
C812        H817   1.084       .  S
C813        C814   1.418       .  A
C814        N815   1.438       .  S
N815        H819   1.046       .  S
N815        H820   1.045       .  S
N818        H821   1.045       .  S
N818        H822   1.046       .  S
C823        C824   1.405       .  A
C823        C828   1.402       .  A
C823        H830   1.085       .  S
C824        C825   1.414       .  A
C825        C826   1.402       .  A
C825        N832   1.439       .  S
C826        C827   1.405       .  A
C826        H831   1.085       .  S
C827        C828   1.415       .  A
C828        N829   1.438       .  S
N829        H833   1.046       .  S
N829        H834   1.042       .  S
N832        H835   1.042       .  S
N832        H836   1.046       .  S
C837        C838   1.402       .  A
C837        C842   1.404       .  A
C837        H844   1.084       .  S
C838        C839   1.418       .  A
C839        C840   1.404       .  A
C839        N846   1.432       .  S
C840        C841   1.405       .  A
C840        H845   1.084       .  S
C841        C842   1.417       .  A
C842        N843   1.438       .  S
N843        H847   1.046       .  S
N843        H848   1.045       .  S
N846        H849   1.046       .  S
N846        H850   1.044       .  S
C851        C852   1.401       .  A
C851        C856   1.402       .  A
C851        H858   1.084       .  S
C852        C853   1.410       .  A
C853        C854   1.397       .  A
C853        N860   1.433       .  S
C854        C855   1.401       .  A
C854        H859   1.084       .  S
C855        C856   1.413       .  A
C856        N857   1.438       .  S
N857        H861   1.046       .  S
N857        H862   1.046       .  S
N860        H863   1.046       .  S
N860        H864   1.046       .  S
C865        C866   1.407       .  A
C865        C870   1.411       .  A
C865        H872   1.083       .  S
C866        C867   1.418       .  A
C867        C868   1.409       .  A
C867        N874   1.438       .  S
C868        C869   1.405       .  A
C868        H873   1.083       .  S
C869        C870   1.416       .  A
C870        N871   1.438       .  S
N871        H875   1.046       .  S
N871        H876   1.046       .  S
N874        H877   1.046       .  S
N874        H878   1.046       .  S
C879        C880   1.405       .  A
C879        C884   1.410       .  A
C879        H886   1.083       .  S
C880        C881   1.420       .  A
C881        C882   1.409       .  A
C881        N888   1.438       .  S
C882        C883   1.404       .  A
C882        H887   1.083       .  S
C883        C884   1.419       .  A
C884        N885   1.438       .  S
N885        H889   1.046       .  S
N885        H890   1.046       .  S
N888        H892   1.046       .  S
N888       H2203   1.046       .  S
H891       N2200   1.046       .  S
C893        C894   1.402       .  A
C893        C898   1.402       .  A
C893        H900   1.084       .  S
C894        C895   1.417       .  A
C895        C896   1.396       .  A
C895        N902   1.441       .  S
C896        C897   1.402       .  A
C896        H901   1.085       .  S
C897        C898   1.410       .  A
C898        N899   1.438       .  S
N899        H903   1.046       .  S
N899        H904   1.045       .  S
N902        H905   1.041       .  S
N902        H906   1.046       .  S
C907        C908   1.407       .  A
C907        C912   1.399       .  A
C907        H914   1.083       .  S
C908        C909   1.415       .  A
C909        C910   1.411       .  A
C909       N2228   1.437       .  S
C910        C911   1.405       .  A
C910       H2227   1.084       .  S
C911        C912   1.409       .  A
C912        N913   1.439       .  S
N913        H917   1.046       .  S
N913        H918   1.046       .  S
H915       C2222   1.084       .  S
N916       C2221   1.437       .  S
N916        H919   1.046       .  S
N916        H920   1.046       .  S
C921        C922   1.407   1_455  A
C921        C926   1.408       .  A
C921        H928   1.084       .  S
C922        C923   1.411       .  A
C923        C924   1.408       .  A
C923        N930   1.438       .  S
C924        C925   1.409   1_655  A
C924        H929   1.083       .  S
C925        C926   1.414       .  A
C926        N927   1.438       .  S
N927        H931   1.046       .  S
N927        H932   1.046       .  S
N930        H933   1.046       .  S
N930        H934   1.046       .  S
C935        C936   1.406       .  A
C935        C940   1.411       .  A
C935        H942   1.083       .  S
C936        C937   1.416       .  A
C937        C938   1.398       .  A
C937        N944   1.439       .  S
C938        C939   1.400       .  A
C938        H943   1.084       .  S
C939        C940   1.413       .  A
C940        N941   1.437       .  S
N941        H945   1.046       .  S
N941        H946   1.045       .  S
N944        H947   1.046       .  S
N944        H948   1.046       .  S
C949        C950   1.404       .  A
C949        C954   1.406       .  A
C949        H956   1.083       .  S
C950        C951   1.410       .  A
C951        C952   1.401       .  A
C951        N958   1.433       .  S
C952        C953   1.405       .  A
C952        H957   1.084       .  S
C953        C954   1.418       .  A
C954        N955   1.438       .  S
N955        H959   1.046       .  S
N955        H960   1.046       .  S
N958        H961   1.046       .  S
N958        H962   1.046       .  S
C963        C964   1.409       .  A
C963        C968   1.409       .  A
C963        H970   1.083       .  S
C964        C965   1.414       .  A
C965        C966   1.406       .  A
C965        N972   1.438       .  S
C966        C967   1.406       .  A
C966        H971   1.084       .  S
C967        C968   1.410       .  A
C968        N969   1.437       .  S
N969        H973   1.046       .  S
N969        H974   1.046       .  S
N972        H975   1.046       .  S
N972        H976   1.046       .  S
C977        C978   1.399       .  A
C977        C982   1.402       .  A
C977        H984   1.084       .  S
C978        C979   1.409       .  A
C979        C980   1.401       .  A
C979        N986   1.439       .  S
C980        C981   1.405       .  A
C980        H985   1.083   1_545  S
C981       C1431   1.480   1_545  S
C981        C982   1.417       .  A
C982        N983   1.438       .  S
N983        H987   1.046       .  S
N983        H988   1.046       .  S
N986        H989   1.046       .  S
N986        H990   1.046       .  S
C991        C992   1.403   1_455  A
C991        C996   1.406       .  A
C991        H998   1.084       .  S
C992        C993   1.417       .  A
C993        C994   1.408       .  A
C993       N1000   1.438       .  S
C994        C995   1.404   1_655  A
C994        H999   1.084       .  S
C995        C996   1.417       .  A
C996        N997   1.438       .  S
N997       H1001   1.046       .  S
N997       H1002   1.045       .  S
N1000      H1003   1.045       .  S
N1000      H1004   1.046       .  S
C1005      C1006   1.405       .  A
C1005      C1010   1.414       .  A
C1005      H1012   1.083       .  S
C1006      C1007   1.413       .  A
C1007      C1008   1.404       .  A
C1007      N1014   1.439       .  S
C1008      C1009   1.402       .  A
C1008      H1013   1.084       .  S
C1009      C1418   1.483   1_545  S
C1009      C1010   1.413       .  A
C1010      N1011   1.437   1_655  S
N1011      H1015   1.046       .  S
N1011      H1016   1.045       .  S
N1014      H1017   1.046       .  S
N1014      H1018   1.046       .  S
C1019      C1020   1.408       .  A
C1019      C1024   1.402       .  A
C1019      H1026   1.084       .  S
C1020      C1021   1.415       .  A
C1021      C1022   1.396       .  A
C1021      N1028   1.432       .  S
C1022      C1023   1.403       .  A
C1022      H1027   1.084       .  S
C1023      C1024   1.408       .  A
C1024      N1025   1.438       .  S
N1025      H1029   1.046       .  S
N1025      H1030   1.045       .  S
N1028      H1031   1.045       .  S
N1028      H1032   1.045       .  S
C1033      C1034   1.403       .  A
C1033      C1038   1.408       .  A
C1033      H1040   1.084       .  S
C1034      C1035   1.414       .  A
C1035      C1036   1.400       .  A
C1035      N1042   1.439       .  S
C1036      C1037   1.400       .  A
C1036      H1041   1.084       .  S
C1037      C1038   1.414       .  A
C1038      N1039   1.438       .  S
N1039      H1044   1.045       .  S
N1039      H2355   1.046       .  S
N1042      H1045   1.045       .  S
N1042      H1046   1.046       .  S
H1043      N2351   1.046       .  S
C1047      C1048   1.407       .  A
C1047      C1052   1.408       .  A
C1047      H1054   1.083       .  S
C1048      C1049   1.413       .  A
C1049      C1050   1.407       .  A
C1049      N1056   1.438       .  S
C1050      C1051   1.407       .  A
C1050      H1055   1.083       .  S
C1051      C1052   1.413       .  A
C1052      N1053   1.438       .  S
N1053      H1057   1.046       .  S
N1053      H1058   1.046       .  S
N1056      H1059   1.046       .  S
N1056      H1060   1.046       .  S
C1061      C1062   1.408       .  A
C1061      C1066   1.407       .  A
C1061      H1068   1.084       .  S
C1062      C1063   1.419       .  A
C1063      C1064   1.403       .  A
C1063      N1070   1.440       .  S
C1064      C1065   1.406       .  A
C1064      H1069   1.084       .  S
C1065      C1395   1.486       .  S
C1065      C1066   1.411       .  A
C1066      N2379   1.438       .  S
N1067      C2378   1.438   1_545  S
N1067      H1071   1.046       .  S
N1067      H1072   1.046       .  S
N1070      H1073   1.042       .  S
N1070      H1074   1.046       .  S
C1075      C1076   1.405       .  A
C1075      C1080   1.400       .  A
C1075      H2394   1.083       .  S
C1076      C1077   1.415       .  A
C1077      C1078   1.409       .  A
C1077      N1084   1.437       .  S
C1078      C1079   1.405       .  A
C1078      H1083   1.083       .  S
C1079      C1080   1.412       .  A
C1080      N2393   1.439       .  S
N1081      C2392   1.439       .  S
N1081      H1085   1.046       .  S
N1081      H1086   1.045       .  S
H1082      C2387   1.083       .  S
N1084      H1087   1.046       .  S
N1084      H1088   1.046       .  S
C1089      C1090   1.402       .  A
C1089      C1094   1.404       .  A
C1089      H1096   1.084       .  S
C1090      C1091   1.411       .  A
C1091      C1092   1.412       .  A
C1091      N1098   1.437       .  S
C1092      C1093   1.406       .  A
C1092      H1097   1.083       .  S
C1093      C1094   1.413       .  A
C1094      N1095   1.439       .  S
N1095      H1099   1.046       .  S
N1095      H1100   1.045       .  S
N1098      H1101   1.045       .  S
N1098      H1102   1.046       .  S
C1103      C1104   1.403       .  A
C1103      C1108   1.401       .  A
C1103      H1110   1.084       .  S
C1104      C1105   1.419       .  A
C1105      C1106   1.396       .  A
C1105      N1112   1.433       .  S
C1106      C1107   1.400       .  A
C1106      H1111   1.084       .  S
C1107      C1108   1.414       .  A
C1108      N1109   1.439       .  S
N1109      H1113   1.046       .  S
N1109      H1114   1.046       .  S
N1112      H1115   1.046       .  S
N1112      H1116   1.045       .  S
C1117      C1118   1.406       .  A
C1117      C1122   1.407       .  A
C1117      H1124   1.083       .  S
C1118      C1119   1.415       .  A
C1119      C1120   1.406       .  A
C1119      N1126   1.438       .  S
C1120      C1121   1.405       .  A
C1120      H1125   1.083       .  S
C1121      C1122   1.414       .  A
C1122      N1123   1.438       .  S
N1123      H1127   1.046       .  S
N1123      H1128   1.046       .  S
N1126      H1129   1.046       .  S
N1126      H1130   1.046       .  S
C1131      C1132   1.402       .  A
C1131      C1136   1.412       .  A
C1131      H1138   1.084       .  S
C1132      C1133   1.413       .  A
C1133      C1134   1.402       .  A
C1133      N1140   1.439       .  S
C1134      C1135   1.402       .  A
C1134      H1139   1.084       .  S
C1135      C1136   1.416       .  A
C1136      N1137   1.437       .  S
N1137      H1141   1.046       .  S
N1137      H1142   1.046       .  S
N1140      H1143   1.046       .  S
N1140      H1144   1.046       .  S
C1145      C1146   1.400       .  A
C1145      C1150   1.393       .  A
C1145      H1152   1.085       .  S
C1146      C1147   1.416       .  A
C1147      C1148   1.399       .  A
C1147      N1154   1.440       .  S
C1148      C1149   1.403       .  A
C1148      H1153   1.084       .  S
C1149      C1150   1.415       .  A
C1150      N1151   1.433       .  S
N1151      H1155   1.045       .  S
N1151      H1156   1.046       .  S
N1154      H1157   1.042       .  S
N1154      H1158   1.046       .  S
C1159      C1160   1.401       .  A
C1159      C1164   1.399       .  A
C1159      H1166   1.084       .  S
C1160      C1161   1.411       .  A
C1161      C1162   1.410       .  A
C1161      N1168   1.437       .  S
C1162      C1163   1.408       .  A
C1162      H1167   1.083       .  S
C1163      C1164   1.417       .  A
C1164      N1165   1.439       .  S
N1165      H1169   1.046       .  S
N1165      H1170   1.046       .  S
N1168      H1171   1.045       .  S
N1168      H1172   1.046       .  S
C1173      C1174   1.403       .  A
C1173      C1178   1.406       .  A
C1173      H1180   1.084       .  S
C1174      C1175   1.416       .  A
C1175      C1176   1.406       .  A
C1175      N1182   1.438       .  S
C1176      C1177   1.403       .  A
C1176      H1181   1.084       .  S
C1177      C1178   1.416       .  A
C1178      N1179   1.438       .  S
N1179      H1183   1.046       .  S
N1179      H1184   1.045       .  S
N1182      H1185   1.045       .  S
N1182      H1186   1.046       .  S
C1187      C1188   1.405       .  A
C1187      C1192   1.409       .  A
C1187      H1194   1.083       .  S
C1188      C1189   1.412   1_655  A
C1189      C1190   1.404       .  A
C1189      N1196   1.432       .  S
C1190      C1191   1.406       .  A
C1190      H1195   1.084       .  S
C1191      C1192   1.418   1_455  A
C1192      N1193   1.438       .  S
N1193      H1197   1.046       .  S
N1193      H1198   1.046       .  S
N1196      H1199   1.046       .  S
N1196      H1200   1.046       .  S
C1201      C1202   1.406       .  A
C1201      C1206   1.411       .  A
C1201      H1208   1.084       .  S
C1202      C1203   1.410       .  A
C1203      C1204   1.398       .  A
C1203      N1210   1.439       .  S
C1204      C1205   1.406       .  A
C1204      H1209   1.083       .  S
C1205      C1206   1.415       .  A
C1206      N1207   1.437       .  S
N1207      H1211   1.046       .  S
N1207      H1212   1.046       .  S
N1210      H1213   1.046       .  S
N1210      H1214   1.046       .  S
C1215      C1216   1.408   1_554  A
C1215      C1220   1.404   1_554  A
C1215      H1222   1.085       .  S
C1216      C1217   1.415       .  A
C1217      C1218   1.404       .  A
C1217      N1224   1.439       .  S
C1218      C1219   1.408       .  A
C1218      H1223   1.085       .  S
C1219      C1220   1.415       .  A
C1220      N1221   1.439   1_556  S
N1221      H1225   1.046       .  S
N1221      H1226   1.042   1_554  S
N1224      H1227   1.042       .  S
N1224      H1228   1.046       .  S
C1229      C1230   1.404       .  A
C1229      C1234   1.406       .  A
C1229      H1236   1.083       .  S
C1230      C1329   1.490   1_545  S
C1230      C1231   1.416       .  A
C1231      C1232   1.409       .  A
C1231      N2550   1.438       .  S
C1232      C1233   1.403       .  A
C1232      H1237   1.083       .  S
C1233      C1234   1.416       .  A
C1234      N1235   1.439       .  S
N1235      H1239   1.046       .  S
N1235      H1240   1.046       .  S
N1238      C2543   1.438       .  S
N1238      H1241   1.046       .  S
N1238      H1242   1.046       .  S
C1243      C1244   1.400       .  A
C1243      C1248   1.400       .  A
C1243      H1250   1.084       .  S
C1244      C1245   1.406       .  A
C1245      C1246   1.401       .  A
C1245      N1252   1.438       .  S
C1246      C1247   1.407       .  A
C1246      H1251   1.084       .  S
C1247      C1248   1.414       .  A
C1248      N1249   1.438       .  S
N1249      H1253   1.046       .  S
N1249      H1254   1.046       .  S
N1252      H1255   1.046       .  S
N1252      H1256   1.046       .  S
C1257      C1258   1.406   1_655  A
C1257      C1262   1.405       .  A
C1257      H1264   1.083       .  S
C1258      C1551   1.488       .  S
C1258      C1259   1.415       .  A
C1259      C1260   1.406   1_556  A
C1259      N1266   1.438   1_556  S
C1260      C1261   1.405   1_455  A
C1260      H1265   1.083       .  S
C1261      C1262   1.415   1_554  A
C1262      N1263   1.438       .  S
N1263      H1267   1.046       .  S
N1263      H1268   1.046       .  S
N1266      H1270   1.046       .  S
N1266      H2581   1.046   1_554  S
H1269      N2578   1.046   1_556  S
C1271      C1272   1.406       .  A
C1271      C1276   1.404       .  A
C1271      H1278   1.084       .  S
C1272      C1273   1.415       .  A
C1273      C1274   1.404       .  A
C1273      N1280   1.437       .  S
C1274      C1275   1.409       .  A
C1274      H1279   1.084       .  S
C1275      C1276   1.414       .  A
C1276      N1277   1.438       .  S
N1277      H1281   1.046       .  S
N1277      H1282   1.045       .  S
N1280      H1283   1.043       .  S
N1280      H1284   1.045       .  S
C1285      C1286   1.405       .  A
C1285      C1290   1.397       .  A
C1285      H1292   1.084       .  S
C1286      C1287   1.413       .  A
C1287      C1288   1.400       .  A
C1287      N1294   1.438       .  S
C1288      C1289   1.401       .  A
C1288      H1293   1.084       .  S
C1289      C1290   1.415       .  A
C1290      N1291   1.439       .  S
N1291      H1295   1.046       .  S
N1291      H1296   1.041       .  S
N1294      H1298   1.046       .  S
N1294      H2609   1.046   1_545  S
H1297      N2606   1.046       .  S
C1299      C1300   1.401       .  A
C1299      C1304   1.404       .  A
C1299      H1306   1.084       .  S
C1300      C1301   1.414       .  A
C1301      C1302   1.397       .  A
C1301      N1308   1.440       .  S
C1302      C1303   1.404       .  A
C1302      H1307   1.084       .  S
C1303      C1304   1.421       .  A
C1304      N1305   1.440       .  S
N1305      H1309   1.046       .  S
N1305      H1310   1.040       .  S
N1308      H1311   1.043       .  S
N1308      H2624   1.046       .  S
H1312      N2620   1.046   1_545  S
O1313     Cd1318   2.441       .  S
C1314      O1323   1.266       .  A
C1314      O1319   1.263       .  A
C1314      C2587   1.490       .  S
O1315     Cd1318   2.474       .  S
O1315      C1321   1.266       .  A
C1316      O1324   1.265       .  A
C1316      C2598   1.477       .  S
C1317      O1322   1.264       .  A
C1317      O1320   1.264       .  A
C1317      C2573   1.488       .  S
Cd1318     O1325   2.442       .  S
Cd1318     O1323   2.478       .  S
Cd1318     O1319   2.466       .  S
Cd1318     O1322   2.467       .  S
Cd1318     O1320   2.465       .  S
C1321      O1325   1.265       .  A
C1321      C2615   1.479       .  S
O1326     Cd1331   2.457       .  S
O1326      C1329   1.264       .  A
C1327      O1336   1.263       .  A
C1327      O1332   1.267       .  A
C1327      C2556   1.463       .  S
O1328     Cd1331   2.484       .  S
O1328      C1334   1.268       .  A
C1329      O1337   1.269       .  A
C1330      O1335   1.267       .  A
C1330      O1333   1.262       .  A
C1330      C2612   1.469       .  S
Cd1331     O1338   2.448       .  S
Cd1331     O1337   2.479       .  S
Cd1331     O1336   2.407       .  S
Cd1331     O1332   2.455       .  S
Cd1331     O1335   2.490       .  S
Cd1331     O1333   2.419       .  S
C1334      O1338   1.265       .  A
C1334      C2528   1.482   1_554  S
O1339     Cd1344   2.434       .  S
O1339      C1342   1.264       .  A
C1340      O1349   1.263       .  A
C1340      O1345   1.267       .  A
C1340      C2601   1.464       .  S
O1341     Cd1344   2.480       .  S
O1341      C1347   1.268       .  A
C1342      O1350   1.269       .  A
C1342      C2584   1.483       .  S
C1343      O1348   1.270       .  A
C1343      O1346   1.262       .  A
C1343      C2517   1.486       .  S
Cd1344     O1351   2.452       .  S
Cd1344     O1350   2.497       .  S
Cd1344     O1349   2.407       .  S
Cd1344     O1345   2.453       .  S
Cd1344     O1348   2.512       .  S
Cd1344     O1346   2.389       .  S
C1347      O1351   1.265       .  A
C1347      C2500   1.490       .  S
O1352     Cd1357   2.443       .  S
O1352      C1355   1.262       .  A
C1353      O1362   1.263       .  A
C1353      O1358   1.265       .  A
C1353      C2559   1.476       .  S
O1354     Cd1357   2.452       .  S
O1354      C1360   1.264       .  A
C1355      O1363   1.270       .  A
C1355      C2545   1.489       .  S
C1356      O1361   1.268       .  A
C1356      O1359   1.262       .  A
C1356      C2514   1.480       .  S
Cd1357     O1364   2.467       .  S
Cd1357     O1363   2.507       .  S
Cd1357     O1362   2.425       .  S
Cd1357     O1358   2.446       .  S
Cd1357     O1361   2.500       .  S
Cd1357     O1359   2.412       .  S
C1360      O1364   1.266       .  A
C1360      C2486   1.484       .  S
O1365     Cd1370   2.448       .  S
O1365      C1368   1.265       .  A
C1366      O1375   1.270       .  A
C1366      O1371   1.262       .  A
C1366      C2444   1.479       .  S
O1367     Cd1370   2.477       .  S
O1367      C1373   1.268       .  A
C1368      O1376   1.262       .  A
C1368      C2458   1.462       .  S
C1369      O1374   1.270       .  A
C1369      O1372   1.263       .  A
C1369      C2472   1.478       .  S
Cd1370     O1377   2.445       .  S
Cd1370     O1376   2.420       .  S
Cd1370     O1375   2.516       .  S
Cd1370     O1371   2.416       .  S
Cd1370     O1374   2.503       .  S
Cd1370     O1372   2.392       .  S
C1373      O1377   1.264       .  A
C1373      C2430   1.488       .  S
O1378     Cd1383   2.500       .  S
O1378      C1381   1.265       .  A
C1379      O1388   1.259       .  A
C1379      O1384   1.267       .  A
C1379      C2416   1.478       .  S
O1380     Cd1383   2.491       .  S
O1380      C1386   1.271       .  A
C1381      O1389   1.264       .  A
C1381      C2402   1.479       .  S
C1382      O1387   1.265       .  A
C1382      O1385   1.266       .  A
C1382      C2489   1.485       .  S
Cd1383     O1390   2.404       .  S
Cd1383     O1389   2.462       .  S
Cd1383     O1388   2.418       .  S
Cd1383     O1384   2.467       .  S
Cd1383     O1387   2.459       .  S
Cd1383     O1385   2.461       .  S
C1386      O1390   1.263       .  A
C1386      C2475   1.486       .  S
O1391     Cd1396   2.478       .  S
O1391      C1394   1.263       .  A
C1392      O1401   1.263       .  A
C1392      O1397   1.268       .  A
C1392      C2461   1.472       .  S
O1393     Cd1396   2.492       .  S
O1393      C1399   1.269       .  A
C1394      O1402   1.266       .  A
C1394      C2447   1.485       .  S
C1395      O1400   1.267       .  A
C1395      O1398   1.263       .  A
Cd1396     O1403   2.417       .  S
Cd1396     O1402   2.467       .  S
Cd1396     O1400   2.495       .  S
Cd1396     O1398   2.446       .  S
C1399      O1403   1.265       .  A
C1399      C2388   1.486       .  S
O1404      C1407   1.265       .  A
C1405      O1414   1.263       .  A
C1405      O1410   1.268       .  A
C1405      C2419   1.474       .  S
O1406     Cd1409   2.483       .  S
O1406      C1412   1.269       .  A
C1407      O1415   1.267       .  A
C1407      C2405   1.483       .  S
C1408      O1413   1.266       .  A
C1408      O1411   1.265       .  A
C1408      C2363   1.490       .  S
Cd1409     O1416   2.417       .  S
Cd1409     O1414   2.408       .  S
Cd1409     O1410   2.462       .  S
Cd1409     O1413   2.476       .  S
Cd1409     O1411   2.456       .  S
C1412      O1416   1.265       .  A
C1412      C2391   1.481       .  S
O1417     Cd1422   2.475       .  S
O1417      C1420   1.268       .  A
C1418      O1427   1.266       .  A
C1418      O1423   1.265       .  A
O1419     Cd1422   2.485       .  S
O1419      C1425   1.271       .  A
C1420      O1428   1.262       .  A
C1420      C2332   1.480       .  S
C1421      O1426   1.264       .  A
C1421      O1424   1.265       .  A
C1421      C2304   1.488       .  S
Cd1422     O1429   2.397       .  S
Cd1422     O1428   2.406       .  S
Cd1422     O1427   2.471       .  S
Cd1422     O1423   2.493       .  S
Cd1422     O1426   2.470       .  S
Cd1422     O1424   2.465       .  S
C1425      O1429   1.264       .  A
C1425      C2346   1.477       .  S
O1430     Cd1435   2.456       .  S
O1430      C1433   1.265       .  A
C1431      O1440   1.261       .  A
C1431      O1436   1.266       .  A
O1432     Cd1435   2.466       .  S
O1432      C1438   1.267       .  A
C1433      O1441   1.268       .  A
C1433      C2276   1.489       .  S
C1434      O1439   1.264       .  A
C1434      O1437   1.264       .  A
C1434      C2349   1.477       .  S
Cd1435     O1442   2.443       .  S
Cd1435     O1441   2.475       .  S
Cd1435     O1440   2.428       .  S
Cd1435     O1436   2.457       .  S
Cd1435     O1439   2.475       .  S
Cd1435     O1437   2.443       .  S
C1438      O1442   1.264       .  A
C1438      C2262   1.482       .  S
O1443     Cd1448   2.511       .  S
O1443      C1446   1.265       .  A
C1444      O1453   1.262       .  A
C1444      O1449   1.265       .  A
C1444      C2335   1.470       .  S
O1445     Cd1448   2.480       .  S
O1445      C1451   1.268       .  A
C1446      O1454   1.264       .  A
C1446      C2318   1.484       .  S
C1447      O1452   1.268       .  A
C1447      O1450   1.264       .  A
C1447      C2251   1.479       .  S
Cd1448     O1455   2.454       .  S
Cd1448     O1454   2.464       .  S
Cd1448     O1453   2.431       .  S
Cd1448     O1449   2.465       .  S
Cd1448     O1452   2.499       .  S
Cd1448     O1450   2.416       .  S
C1451      O1455   1.266       .  A
C1451      C2234   1.488       .  S
O1456     Cd1461   2.451       .  S
O1456      C1459   1.267       .  A
C1457      O1466   1.268       .  A
C1457      O1462   1.263       .  A
C1457      C2279   1.486       .  S
O1458     Cd1461   2.522       .  S
O1458      C1464   1.268       .  A
C1459      O1467   1.263       .  A
C1459      C2290   1.467       .  S
C1460      O1465   1.268       .  A
C1460      O1463   1.267       .  A
C1460      C2360   1.489       .  S
Cd1461     O1468   2.399       .  S
Cd1461     O1467   2.417       .  S
Cd1461     O1466   2.498       .  S
Cd1461     O1462   2.444       .  S
Cd1461     O1465   2.465       .  S
Cd1461     O1463   2.455       .  S
C1464      O1468   1.259       .  A
C1464      C2248   1.484       .  S
O1469     Cd1474   2.459       .  S
C1470      O1479   1.263       .  A
C1470      O1475   1.266       .  A
C1470      C2209   1.469       .  S
O1471     Cd1474   2.511       .  S
O1471      C1477   1.271       .  A
C1472      O1480   1.269       .  A
C1472      C2192   1.497       .  S
C1473      O1478   1.267       .  A
C1473      O1476   1.263       .  A
C1473      C2178   1.498       .  S
Cd1474     O1481   2.395       .  S
Cd1474     O1479   2.412       .  S
Cd1474     O1475   2.454       .  S
Cd1474     O1478   2.509       .  S
Cd1474     O1476   2.469       .  S
C1477      O1481   1.264       .  A
C1477      C2220   1.486       .  S
O1482      C1485   1.266       .  A
C1483      O1492   1.268       .  A
C1483      O1488   1.263       .  A
C1483      C2150   1.486       .  S
O1484     Cd1487   2.460       .  S
C1485      O1493   1.263       .  A
C1485      C2167   1.469       .  S
C1486      O1491   1.267       .  A
C1486      O1489   1.264       .  A
C1486      C2223   1.477       .  S
Cd1487     O1494   2.450       .  S
Cd1487     O1492   2.468       .  S
Cd1487     O1488   2.461       .  S
Cd1487     O1491   2.491       .  S
Cd1487     O1489   2.423       .  S
C1490      C2265   1.487   1_545  S
O1495     Cd1500   2.468       .  S
O1495      C1498   1.262       .  A
C1496      O1505   1.265       .  A
C1496      O1501   1.268       .  A
C1496      C2206   1.465       .  S
O1497     Cd1500   2.512       .  S
O1497      C1503   1.269       .  A
C1498      O1506   1.269       .  A
C1498      C2195   1.497       .  S
C1499      O1504   1.268       .  A
C1499      O1502   1.262       .  A
C1499      C2122   1.492       .  S
Cd1500     O1507   2.426       .  S
Cd1500     O1506   2.516       .  S
Cd1500     O1505   2.410       .  S
Cd1500     O1501   2.439       .  S
Cd1500     O1504   2.510       .  S
Cd1500     O1502   2.457       .  S
C1503      O1507   1.260       .  A
C1503      C2136   1.474       .  S
O1508     Cd1513   2.430       .  S
O1508      C1511   1.261       .  A
C1509      O1518   1.264       .  A
C1509      O1514   1.269       .  A
C1509      C2164   1.468       .  S
O1510     Cd1513   2.512       .  S
O1510      C1516   1.269       .  A
C1511      O1519   1.269       .  A
C1511      C2153   1.489       .  S
C1512      O1517   1.268       .  A
C1512      O1515   1.264       .  A
C1512      C2531   1.482       .  S
Cd1513     O1520   2.416       .  S
Cd1513     O1519   2.522       .  S
Cd1513     O1518   2.398       .  S
Cd1513     O1514   2.445       .  S
Cd1513     O1517   2.484       .  S
Cd1513     O1515   2.449       .  S
C1516      O1520   1.260       .  A
C1516      C2139   1.474       .  S
O1521     Cd1526   2.420       .  S
O1521      C1524   1.262       .  A
C1522      O1531   1.264       .  A
C1522      O1527   1.264       .  A
C1522      C2094   1.475       .  S
O1523     Cd1526   2.489       .  S
O1523      C1529   1.269       .  A
C1524      O1532   1.271       .  A
C1524      C2080   1.488       .  S
C1525      O1530   1.264       .  A
C1525      O1528   1.266       .  A
C1525      C2307   1.489       .  S
Cd1526     O1533   2.423       .  S
Cd1526     O1532   2.507       .  S
Cd1526     O1531   2.415       .  S
Cd1526     O1527   2.440       .  S
Cd1526     O1530   2.448       .  S
Cd1526     O1528   2.479       .  S
C1529      O1533   1.264       .  A
C1529      C2108   1.471       .  S
O1534     Cd1539   2.446       .  S
O1534      C1537   1.266       .  A
C1535      O1544   1.268       .  A
C1535      O1540   1.263       .  A
C1535      C2052   1.493       .  S
O1536     Cd1539   2.489       .  S
O1536      C1542   1.268       .  A
C1537      O1545   1.264       .  A
C1537      C2066   1.466       .  S
C1538      O1543   1.268       .  A
C1538      O1541   1.258       .  A
C1538      C2111   1.490       .  S
Cd1539     O1546   2.474       .  S
Cd1539     O1545   2.434       .  S
Cd1539     O1544   2.516       .  S
Cd1539     O1540   2.465       .  S
Cd1539     O1543   2.519       .  S
Cd1539     O1541   2.424       .  S
C1542      O1546   1.265       .  A
C1542      C2038   1.496       .  S
O1547     Cd1552   2.467       .  S
O1547      C1550   1.263       .  A
C1548      O1557   1.264       .  A
C1548      O1553   1.266   1_565  A
C1548      C2097   1.469       .  S
O1549     Cd1552   2.515       .  S
O1549      C1555   1.268       .  A
C1550      O1558   1.267       .  A
C1550      C2083   1.489       .  S
C1551      O1556   1.267       .  A
C1551      O1554   1.266       .  A
Cd1552     O1559   2.415       .  S
Cd1552     O1558   2.472       .  S
Cd1552     O1556   2.467       .  S
Cd1552     O1554   2.449       .  S
C1555      O1559   1.259       .  A
C1555      C2027   1.487       .  S
O1560      C1563   1.264       .  A
C1561      O1570   1.262       .  A
C1561      O1566   1.267       .  A
C1561      C2069   1.480       .  S
O1562     Cd1565   2.492       .  S
O1562      C1568   1.269       .  A
C1563      O1571   1.268       .  A
C1563      C2055   1.495       .  S
C1564      O1569   1.266       .  A
C1564      O1567   1.264       .  A
C1564      C2013   1.493       .  S
Cd1565     O1572   2.417       .  S
Cd1565     O1570   2.422       .  S
Cd1565     O1566   2.468       .  S
Cd1565     O1569   2.483       .  S
Cd1565     O1567   2.471       .  S
C1568      O1572   1.264       .  A
C1568      C2024   1.475       .  S
O1573     Cd1578   2.447       .  S
O1573      C1576   1.269       .  A
C1574      O1583   1.267       .  A
C1574      O1579   1.262       .  A
C1574      C1968   1.493       .  S
O1575     Cd1578   2.511       .  S
O1575      C1581   1.269       .  A
C1576      O1584   1.265       .  A
C1576      C1985   1.469       .  S
C1577      O1582   1.268       .  A
C1577      O1580   1.261       .  A
C1577      C2125   1.491       .  S
Cd1578     O1585   2.429       .  S
Cd1578     O1584   2.404       .  S
Cd1578     O1583   2.502       .  S
Cd1578     O1579   2.472       .  S
Cd1578     O1582   2.518       .  S
Cd1578     O1580   2.461       .  S
C1581      O1585   1.261       .  A
C1581      C1996   1.476       .  S
O1586     Cd1591   2.475       .  S
O1586      C1589   1.267       .  A
C1587      O1596   1.266       .  A
C1587      O1592   1.264       .  A
C1587      C1940   1.491       .  S
O1588     Cd1591   2.487       .  S
O1588      C1594   1.269       .  A
C1589      O1597   1.262       .  A
C1589      C1954   1.475       .  S
C1590      O1595   1.264       .  A
C1590      O1593   1.264       .  A
C1590      C2010   1.492       .  S
Cd1591     O1598   2.443       .  S
Cd1591     O1597   2.417       .  S
Cd1591     O1596   2.491       .  S
Cd1591     O1592   2.496       .  S
Cd1591     O1595   2.481       .  S
Cd1591     O1593   2.488       .  S
C1594      O1598   1.265       .  A
C1594      C1999   1.476       .  S
O1599     Cd1604   2.444       .  S
O1599      C1602   1.262       .  A
C1600      O1609   1.270       .  A
C1600      O1605   1.261       .  A
O1601     Cd1604   2.495       .  S
O1601      C1607   1.267       .  A
C1602      O1610   1.263       .  A
C1602      C1982   1.474       .  S
C1603      O1608   1.267       .  A
C1603      O1606   1.264       .  A
C1603      C2433   1.487       .  S
Cd1604     O1611   2.429       .  S
Cd1604     O1610   2.443       .  S
Cd1604     O1609   2.518       .  S
Cd1604     O1605   2.445       .  S
Cd1604     O1608   2.474       .  S
Cd1604     O1606   2.457       .  S
C1607      O1611   1.265       .  A
C1607      C1926   1.475       .  S
O1612     Cd1617   2.453       .  S
O1612      C1615   1.263       .  A
C1613      O1622   1.261       .  A
C1613      O1618   1.269       .  A
C1613      C1957   1.475       .  S
O1614     Cd1617   2.484       .  S
O1614      C1620   1.265       .  A
C1615      O1623   1.269       .  A
C1615      C1943   1.490       .  S
C1616      O1621   1.272       .  A
C1616      O1619   1.262       .  A
C1616      C1929   1.481       .  S
Cd1617     O1624   2.482       .  S
Cd1617     O1623   2.522       .  S
Cd1617     O1622   2.395       .  S
Cd1617     O1618   2.488       .  S
Cd1617     O1621   2.531       .  S
Cd1617     O1619   2.383       .  S
C1620      O1624   1.265       .  A
C1620      C1912   1.490       .  S
O1625     Cd1630   2.456       .  S
O1625      C1628   1.266       .  A
C1626      O1635   1.269       .  A
C1626      O1631   1.264       .  A
C1626      C1870   1.495       .  S
O1627     Cd1630   2.502       .  S
O1627      C1633   1.268       .  A
C1628      O1636   1.264       .  A
C1628      C1884   1.474       .  S
C1629      O1634   1.268       .  A
C1629      O1632   1.265       .  A
C1629      C2181   1.496       .  S
Cd1630     O1637   2.438       .  S
Cd1630     O1636   2.418       .  S
Cd1630     O1635   2.505       .  S
Cd1630     O1631   2.454       .  S
Cd1630     O1634   2.495       .  S
Cd1630     O1632   2.476       .  S
C1633      O1637   1.262       .  A
C1633      C1898   1.476       .  S
O1638     Cd1643   2.456       .  S
O1638      C1641   1.265       .  A
C1639      O1648   1.265       .  A
C1639      O1644   1.263       .  A
C1639      C1845   1.482       .  S
O1640     Cd1643   2.493       .  S
O1640      C1646   1.269       .  A
C1641      O1649   1.264       .  A
C1641      C1856   1.482       .  S
C1642      O1647   1.266       .  A
C1642      O1645   1.262       .  A
C1642      C2041   1.495       .  S
Cd1643     O1650   2.444       .  S
Cd1643     O1649   2.442       .  S
Cd1643     O1648   2.497       .  S
Cd1643     O1644   2.497       .  S
Cd1643     O1647   2.502       .  S
Cd1643     O1645   2.476       .  S
C1646      O1650   1.265       .  A
C1646      C1901   1.484       .  S
O1651     Cd1656   2.456       .  S
O1651      C1654   1.264       .  A
C1652      O1661   1.263       .  A
C1652      O1657   1.262       .  A
O1653     Cd1656   2.469       .  S
O1653      C1659   1.266       .  A
C1654      O1662   1.269       .  A
C1654      C1873   1.492       .  S
C1655      O1660   1.263       .  A
C1655      O1658   1.263       .  A
C1655      C1828   1.477       .  S
Cd1656     O1663   2.465       .  S
Cd1656     O1662   2.495       .  S
Cd1656     O1661   2.452       .  S
Cd1656     O1657   2.448       .  S
Cd1656     O1660   2.494       .  S
Cd1656     O1658   2.456       .  S
C1659      O1663   1.265       .  A
C1659      C2374   1.487       .  S
O1664     Cd1669   2.493       .  S
C1665      O1674   1.262       .  A
C1665      O1670   1.268       .  A
C1665      C1859   1.468       .  S
O1666     Cd1669   2.476       .  S
O1666      C1672   1.266       .  A
C1667      O1675   1.266       .  A
C1667      C1842   1.486       .  S
C1668      O1673   1.269       .  A
C1668      O1671   1.264       .  A
C1668      C1831   1.478       .  S
Cd1669     O1676   2.478       .  S
Cd1669     O1674   2.416       .  S
Cd1669     O1670   2.475       .  S
Cd1669     O1673   2.495       .  S
Cd1669     O1671   2.421       .  S
C1672      O1676   1.266       .  A
C1672      C1814   1.495       .  S
O1677      C1680   1.264   1_545  A
C1678      O1687   1.262       .  A
C1678      O1683   1.263       .  A
C1678      C1786   1.470       .  S
O1679     Cd1682   2.490       .  S
O1679      C1685   1.268       .  A
C1680      O1688   1.270       .  A
C1680      C1775   1.488       .  S
C1681      O1686   1.265       .  A
C1681      O1684   1.265       .  A
C1681      C2503   1.492       .  S
Cd1682     O1689   2.428       .  S
Cd1682     O1687   2.435       .  S
Cd1682     O1683   2.445       .  S
Cd1682     O1686   2.471       .  S
Cd1682     O1684   2.477       .  S
C1685      O1689   1.265       .  A
C1685      C1803   1.475       .  S
O1690     Cd1695   2.447       .  S
O1690      C1693   1.264       .  A
C1691      O1700   1.262       .  A
C1691      O1696   1.266       .  A
C1691      C1758   1.461       .  S
O1692     Cd1695   2.512       .  S
O1692      C1698   1.269       .  A
C1693      O1701   1.271       .  A
C1693      C1747   1.490       .  S
C1694      O1699   1.265       .  A
C1694      O1697   1.267       .  A
Cd1695     O1702   2.416       .  S
Cd1695     O1701   2.508       .  S
Cd1695     O1699   2.464       .  S
Cd1695     O1697   2.494       .  S
C1698      O1702   1.262       .  A
C1698      C1800   1.485       .  S
O1703     Cd1708   2.450       .  S
O1703      C1706   1.262       .  A
C1704      O1713   1.263       .  A
C1704      O1709   1.266       .  A
C1704      C1789   1.473       .  S
O1705     Cd1708   2.496       .  S
O1705      C1711   1.268       .  A
C1706      O1714   1.269       .  A
C1706      C1772   1.488       .  S
C1707      O1712   1.269       .  A
C1707      O1710   1.265       .  A
C1707      C2237   1.492       .  S
Cd1708     O1715   2.427       .  S
Cd1708     O1714   2.512       .  S
Cd1708     O1713   2.412       .  S
Cd1708     O1709   2.449       .  S
Cd1708     O1712   2.489       .  S
Cd1708     O1710   2.451       .  S
C1711      O1715   1.263       .  A
C1711      C1730   1.473       .  S
O1716     Cd1721   2.476       .  S
O1716      C1719   1.264       .  A
C1717      O1726   1.261       .  A
C1717      O1722   1.269       .  A
C1717      C1761   1.477       .  S
O1718     Cd1721   2.500       .  S
O1718      C1724   1.270       .  A
C1719      O1727   1.268       .  A
C1719      C1744   1.494       .  S
C1720      O1725   1.266       .  A
C1720      O1723   1.264       .  A
C1720      C1817   1.495       .  S
Cd1721     O1728   2.410       .  S
Cd1721     O1727   2.496       .  S
Cd1721     O1726   2.401       .  S
Cd1721     O1722   2.463       .  S
Cd1721     O1725   2.488       .  S
Cd1721     O1723   2.467       .  S
C1724      O1728   1.263       .  A
C1724      C1733   1.478       .  S
C1729      C1730   1.400       .  A
C1729      C1734   1.401       .  A
C1729      H1736   1.084       .  S
C1730      C1731   1.420       .  A
C1731      C1732   1.405       .  A
C1731      N1738   1.438       .  S
C1732      C1733   1.402       .  A
C1732      H1737   1.084       .  S
C1733      C1734   1.414       .  A
C1734      N1735   1.439       .  S
N1735      H1739   1.046       .  S
N1735      H1740   1.045       .  S
N1738      H1741   1.041       .  S
N1738      H1742   1.046       .  S
C1743      C1744   1.409       .  A
C1743      C1748   1.406       .  A
C1743      H1750   1.084       .  S
C1744      C1745   1.414       .  A
C1745      C1746   1.408       .  A
C1745      N1752   1.438       .  S
C1746      C1747   1.407       .  A
C1746      H1751   1.084       .  S
C1747      C1748   1.417       .  A
C1748      N1749   1.437       .  S
N1749      H1753   1.045       .  S
N1749      H1754   1.042       .  S
N1752      H1755   1.045       .  S
N1752      H1756   1.046       .  S
C1757      C1758   1.397       .  A
C1757      C1762   1.400       .  A
C1757      H1764   1.084       .  S
C1758      C1759   1.414       .  A
C1759      C1760   1.397       .  A
C1759      N1766   1.439       .  S
C1760      C1761   1.404       .  A
C1760      H1765   1.084       .  S
C1761      C1762   1.418       .  A
C1762      N1763   1.439       .  S
N1763      H1767   1.046       .  S
N1763      H1768   1.046       .  S
N1766      H1769   1.043       .  S
N1766      H1770   1.045       .  S
C1771      C1772   1.407       .  A
C1771      C1776   1.407       .  A
C1771      H1778   1.084       .  S
C1772      C1773   1.411       .  A
C1773      C1774   1.409       .  A
C1773      N1780   1.437       .  S
C1774      C1775   1.408       .  A
C1774      H1779   1.083       .  S
C1775      C1776   1.413       .  A
C1776      N1777   1.438       .  S
N1777      H1781   1.046       .  S
N1777      H1782   1.046       .  S
N1780      H1783   1.046       .  S
N1780      H1784   1.046       .  S
C1785      C1786   1.403       .  A
C1785      C1790   1.395       .  A
C1785      H1792   1.084       .  S
C1786      C1787   1.410       .  A
C1787      C1788   1.400       .  A
C1787      N1794   1.438       .  S
C1788      C1789   1.405       .  A
C1788      H1793   1.084       .  S
C1789      C1790   1.414       .  A
C1790      N1791   1.433       .  S
N1791      H1795   1.045       .  S
N1791      H1796   1.046       .  S
N1794      H1797   1.046       .  S
N1794      H1798   1.046       .  S
C1799      C1800   1.407       .  A
C1799      C1804   1.400       .  A
C1800      C1801   1.423       .  A
C1801      C1802   1.408       .  A
C1801      N1808   1.439       .  S
C1802      C1803   1.403       .  A
C1802      H1807   1.084       .  S
C1803      C1804   1.406       .  A
N1805      H1809   1.046       .  S
N1805      H1810   1.046       .  S
N1808      H1811   1.042       .  S
N1808      H1812   1.043       .  S
C1813      C1814   1.407       .  A
C1813      C1818   1.409       .  A
C1813      H1820   1.083       .  S
C1814      C1815   1.416       .  A
C1815      C1816   1.408       .  A
C1815      N1822   1.438       .  S
C1816      C1817   1.407       .  A
C1816      H1821   1.083       .  S
C1817      C1818   1.416       .  A
C1818      N1819   1.438       .  S
N1819      H1823   1.046       .  S
N1819      H1824   1.046       .  S
N1822      H1825   1.046       .  S
N1822      H1826   1.046       .  S
C1827      C1828   1.405       .  A
C1827      C1832   1.405       .  A
C1827      H1834   1.084       .  S
C1828      C1829   1.415       .  A
C1829      C1830   1.398       .  A
C1829      N1836   1.440       .  S
C1830      C1831   1.404       .  A
C1830      H1835   1.085       .  S
C1831      C1832   1.419       .  A
N1833      H1837   1.046       .  S
N1833      H1838   1.040       .  S
N1836      H1839   1.042       .  S
N1836      H1840   1.046       .  S
C1841      C1842   1.404       .  A
C1841      C1846   1.402       .  A
C1841      H1848   1.085       .  S
C1842      C1843   1.420       .  A
C1843      C1844   1.409       .  A
C1843      N1850   1.439       .  S
C1844      C1845   1.404       .  A
C1844      H1849   1.084       .  S
C1845      C1846   1.417       .  A
C1846      N1847   1.439       .  S
N1847      H1851   1.045       .  S
N1847      H1852   1.042       .  S
N1850      H1853   1.042       .  S
N1850      H1854   1.046       .  S
C1855      C1856   1.407       .  A
C1855      C1860   1.400       .  A
C1855      H1862   1.084       .  S
C1856      C1857   1.416       .  A
C1857      C1858   1.395       .  A
C1857      N1864   1.432       .  S
C1858      C1859   1.401       .  A
C1858      H1863   1.085       .  S
C1859      C1860   1.415       .  A
C1860      N1861   1.438       .  S
N1861      H1865   1.046       .  S
N1861      H1866   1.041       .  S
N1864      H1867   1.045       .  S
N1864      H1868   1.045       .  S
C1869      C1870   1.409       .  A
C1869      C1874   1.408       .  A
C1869      H1876   1.083       .  S
C1870      C1871   1.415       .  A
C1871      C1872   1.409       .  A
C1871      N1878   1.438       .  S
C1872      C1873   1.408       .  A
C1872      H1877   1.083       .  S
C1873      C1874   1.412       .  A
C1874      N1875   1.438       .  S
N1875      H1879   1.046       .  S
N1875      H1880   1.046       .  S
N1878      H1881   1.045       .  S
N1878      H1882   1.046       .  S
C1883      C1884   1.403       .  A
C1883      C1888   1.393       .  A
C1883      H1890   1.084       .  S
C1884      C1885   1.411       .  A
C1885      C1886   1.404       .  A
C1885      N1892   1.438       .  S
C1886      C1887   1.405       .  A
C1886      H1891   1.084       .  S
C1887      C1888   1.414       .  A
N1889      H1893   1.045       .  S
N1889      H1894   1.045       .  S
N1892      H1895   1.046       .  S
N1892      H1896   1.046       .  S
C1897      C1898   1.401       .  A
C1897      C1902   1.401       .  A
C1897      H1904   1.085       .  S
C1898      C1899   1.418       .  A
C1899      C1900   1.406       .  A
C1899      N1906   1.439       .  S
C1900      C1901   1.405       .  A
C1900      H1905   1.084       .  S
C1901      C1902   1.420       .  A
C1902      N1903   1.441       .  S
N1903      H1907   1.046       .  S
N1903      H1908   1.042       .  S
N1906      H1909   1.042       .  S
N1906      H1910   1.046       .  S
C1911      C1912   1.408       .  A
C1911      C1916   1.411       .  A
C1911      H1918   1.084       .  S
C1912      C1913   1.412       .  A
C1913      C1914   1.409       .  A
C1913      N1920   1.438       .  S
C1914      C1915   1.407       .  A
C1914      H1919   1.084       .  S
C1915      C1916   1.412       .  A
N1917      H1921   1.046       .  S
N1917      H1922   1.045       .  S
N1920      H1923   1.045       .  S
N1920      H1924   1.046       .  S
C1925      C1926   1.407       .  A
C1925      C1930   1.412       .  A
C1925      H1932   1.084       .  S
C1926      C1927   1.413       .  A
C1927      C1928   1.395       .  A
C1927      N1934   1.440       .  S
C1928      C1929   1.405       .  A
C1928      H1933   1.084       .  S
C1929      C1930   1.411       .  A
C1930      N1931   1.437       .  S
N1931      H1935   1.046       .  S
N1931      H1936   1.046       .  S
N1934      H1937   1.043       .  S
N1934      H1938   1.046       .  S
C1939      C1940   1.403       .  A
C1939      C1944   1.407       .  A
C1939      H1946   1.084       .  S
C1940      C1941   1.416       .  A
C1941      C1942   1.413       .  A
C1941      N1948   1.437       .  S
C1942      C1943   1.405       .  A
C1942      H1947   1.083       .  S
C1943      C1944   1.415       .  A
C1944      N1945   1.439       .  S
N1945      H1949   1.046       .  S
N1945      H1950   1.046       .  S
N1948      H1951   1.046       .  S
N1948      H1952   1.046       .  S
C1953      C1954   1.405       .  A
C1953      H1960   1.084       .  S
C1954      C1955   1.414       .  A
C1955      C1956   1.391       .  A
C1955      N1962   1.433       .  S
C1957      C1958   1.411       .  A
C1958      N1959   1.437       .  S
N1959      H1963   1.046       .  S
N1959      H1964   1.046       .  S
N1962      H1965   1.046       .  S
N1962      H1966   1.045       .  S
C1967      C1968   1.403       .  A
C1967      H1974   1.083       .  S
C1968      C1969   1.417       .  A
C1969      C1970   1.410       .  A
C1969      N1976   1.438       .  S
C1970      C1971   1.405       .  A
C1970      H1975   1.083       .  S
C1972      N1973   1.438       .  S
N1973      H1977   1.046       .  S
N1973      H1978   1.046       .  S
N1976      H1979   1.046       .  S
N1976      H1980   1.046       .  S
C1981      C1982   1.403       .  A
C1981      C1986   1.400       .  A
C1981      H1988   1.084       .  S
C1982      C1983   1.414       .  A
C1983      C1984   1.402       .  A
C1983      N1990   1.438       .  S
C1984      C1985   1.401       .  A
C1984      H1989   1.084       .  S
C1985      C1986   1.411       .  A
C1986      N1987   1.439       .  S
N1987      H1991   1.046       .  S
N1987      H1992   1.046       .  S
N1990      H1993   1.045       .  S
N1990      H1994   1.046       .  S
C1995      C1996   1.401       .  A
C1995      C2000   1.404       .  A
C1995      H2002   1.084       .  S
C1996      C1997   1.418       .  A
C1997      C1998   1.401       .  A
C1997      N2004   1.438       .  S
C1998      C1999   1.401       .  A
C1998      H2003   1.084       .  S
C1999      C2000   1.419       .  A
C2000      N2001   1.439       .  S
N2001      H2005   1.046       .  S
N2001      H2006   1.043       .  S
N2004      H2007   1.043       .  S
N2004      H2008   1.046       .  S
C2009      C2010   1.406   1_556  A
C2009      C2014   1.409       .  A
C2009      H2016   1.083       .  S
C2010      C2011   1.412       .  A
C2011      C2012   1.405   1_554  A
C2011      N2018   1.432       .  S
C2012      C2013   1.407       .  A
C2012      H2017   1.084       .  S
C2013      C2014   1.417       .  A
C2014      N2015   1.438       .  S
N2015      H2019   1.046       .  S
N2015      H2020   1.045       .  S
N2018      H2021   1.046       .  S
N2018      H2022   1.046       .  S
C2023      C2028   1.401       .  A
C2023      H2030   1.084   1_545  S
C2024      C2025   1.419       .  A
C2025      C2026   1.405       .  A
C2025      N2032   1.438       .  S
C2026      C2027   1.406       .  A
C2026      H2031   1.084       .  S
C2028      N2029   1.439   1_545  S
N2029      H2033   1.046       .  S
N2029      H2034   1.045       .  S
N2032      H2035   1.043       .  S
N2032      H2036   1.043       .  S
C2037      C2038   1.406       .  A
C2037      C2042   1.409       .  A
C2037      H2044   1.083       .  S
C2038      C2039   1.417       .  A
C2039      C2040   1.410       .  A
C2039      N2046   1.438       .  S
C2040      C2041   1.406       .  A
C2040      H2045   1.083       .  S
C2041      C2042   1.416       .  A
C2042      N2043   1.438       .  S
N2043      H2047   1.046       .  S
N2043      H2048   1.046       .  S
N2046      H2049   1.046       .  S
N2046      H2050   1.046       .  S
C2051      C2052   1.407       .  A
C2051      C2056   1.409       .  A
C2051      H2058   1.083       .  S
C2052      C2053   1.412       .  A
C2053      C2054   1.410       .  A
C2053      N2060   1.437       .  S
C2054      C2055   1.409       .  A
C2054      H2059   1.083       .  S
C2055      C2056   1.415       .  A
C2056      N2057   1.438       .  S
N2057      H2061   1.046       .  S
N2057      H2062   1.046       .  S
N2060      H2063   1.046       .  S
N2060      H2064   1.046       .  S
C2065      C2066   1.399       .  A
C2065      C2070   1.401       .  A
C2065      H2072   1.084       .  S
C2066      C2067   1.414       .  A
C2067      C2068   1.399       .  A
C2067      N2074   1.438       .  S
C2068      C2069   1.405       .  A
C2068      H2073   1.084       .  S
C2069      C2070   1.417       .  A
C2070      N2071   1.439       .  S
N2071      H2075   1.046       .  S
N2071      H2076   1.046       .  S
N2074      H2077   1.043       .  S
N2074      H2078   1.045       .  S
C2079      C2080   1.404       .  A
C2079      C2084   1.410       .  A
C2079      H2086   1.083       .  S
C2080      C2081   1.418       .  A
C2081      C2082   1.403       .  A
C2081      N2088   1.439       .  S
C2082      C2083   1.402       .  A
C2082      H2087   1.083       .  S
C2083      C2084   1.418       .  A
C2084      N2085   1.438       .  S
N2085      H2089   1.046       .  S
N2085      H2090   1.046       .  S
N2088      H2091   1.046       .  S
N2088      H2092   1.046       .  S
C2093      C2094   1.405       .  A
C2093      C2098   1.399       .  A
C2093      H2100   1.084       .  S
C2094      C2095   1.414       .  A
C2095      C2096   1.401       .  A
C2095      N2102   1.438       .  S
C2096      C2097   1.402       .  A
C2096      H2101   1.084       .  S
C2097      C2098   1.409       .  A
C2098      N2099   1.438       .  S
N2099      H2103   1.046       .  S
N2099      H2104   1.045       .  S
N2102      H2105   1.045       .  S
N2102      H2106   1.046       .  S
C2107      C2108   1.397       .  A
C2107      C2112   1.395       .  A
C2107      H2114   1.085       .  S
C2108      C2109   1.416       .  A
C2109      C2110   1.405       .  A
C2109      N2116   1.438       .  S
C2110      C2111   1.408       .  A
C2110      H2115   1.084       .  S
C2111      C2112   1.422       .  A
C2112      N2113   1.433       .  S
N2113      H2117   1.045       .  S
N2113      H2118   1.045       .  S
N2116      H2119   1.043       .  S
N2116      H2120   1.046       .  S
C2121      C2122   1.403       .  A
C2121      C2126   1.409   1_556  A
C2121      H2128   1.084       .  S
C2122      C2123   1.419       .  A
C2123      C2124   1.410       .  A
C2123      N2130   1.438       .  S
C2124      C2125   1.402   1_556  A
C2124      H2129   1.084       .  S
C2125      C2126   1.418       .  A
C2126      N2127   1.438       .  S
N2127      H2131   1.046       .  S
N2127      H2132   1.045       .  S
N2130      H2133   1.045       .  S
N2130      H2134   1.046       .  S
C2135      C2136   1.405       .  A
C2135      C2140   1.402       .  A
C2135      H2142   1.085       .  S
C2136      C2137   1.414       .  A
C2137      C2138   1.402       .  A
C2137      N2144   1.439       .  S
C2138      C2139   1.405       .  A
C2138      H2143   1.085       .  S
C2139      C2140   1.415       .  A
C2140      N2141   1.438       .  S
N2141      H2145   1.046       .  S
N2141      H2146   1.042       .  S
N2144      H2147   1.042       .  S
N2144      H2148   1.046       .  S
C2149      C2150   1.402       .  A
C2149      C2154   1.404       .  A
C2149      H2156   1.084       .  S
C2150      C2151   1.418       .  A
C2151      C2152   1.404       .  A
C2151      N2158   1.432       .  S
C2152      C2153   1.405       .  A
C2152      H2157   1.084       .  S
C2153      C2154   1.417       .  A
C2154      N2155   1.438       .  S
N2155      H2159   1.046       .  S
N2155      H2160   1.045       .  S
N2158      H2161   1.046       .  S
N2158      H2162   1.044       .  S
C2163      C2164   1.401       .  A
C2163      C2168   1.402       .  A
C2163      H2170   1.084       .  S
C2164      C2165   1.410       .  A
C2165      C2166   1.397       .  A
C2165      N2172   1.433       .  S
C2166      C2167   1.401       .  A
C2166      H2171   1.084       .  S
C2167      C2168   1.413       .  A
C2168      N2169   1.438       .  S
N2169      H2173   1.046       .  S
N2169      H2174   1.046       .  S
N2172      H2175   1.046       .  S
N2172      H2176   1.046       .  S
C2177      C2178   1.407       .  A
C2177      C2182   1.411       .  A
C2177      H2184   1.083       .  S
C2178      C2179   1.418       .  A
C2179      C2180   1.409       .  A
C2179      N2186   1.438       .  S
C2180      C2181   1.405       .  A
C2180      H2185   1.083       .  S
C2181      C2182   1.416       .  A
C2182      N2183   1.438       .  S
N2183      H2187   1.046       .  S
N2183      H2188   1.046       .  S
N2186      H2189   1.046       .  S
N2186      H2190   1.046       .  S
C2191      C2192   1.405       .  A
C2191      C2196   1.410       .  A
C2191      H2198   1.083       .  S
C2192      C2193   1.420       .  A
C2193      C2194   1.409       .  A
C2193      N2200   1.438       .  S
C2194      C2195   1.404       .  A
C2194      H2199   1.083       .  S
C2195      C2196   1.419       .  A
C2196      N2197   1.438       .  S
N2197      H2201   1.046       .  S
N2197      H2202   1.046       .  S
N2200      H2204   1.046       .  S
C2205      C2206   1.402       .  A
C2205      C2210   1.402       .  A
C2205      H2212   1.084       .  S
C2206      C2207   1.417       .  A
C2207      C2208   1.396       .  A
C2207      N2214   1.441       .  S
C2208      C2209   1.402       .  A
C2208      H2213   1.085       .  S
C2209      C2210   1.410       .  A
C2210      N2211   1.438       .  S
N2211      H2215   1.046       .  S
N2211      H2216   1.045       .  S
N2214      H2217   1.041       .  S
N2214      H2218   1.046       .  S
C2219      C2220   1.407       .  A
C2219      C2224   1.399       .  A
C2219      H2226   1.083       .  S
C2220      C2221   1.415       .  A
C2221      C2222   1.411       .  A
C2222      C2223   1.405       .  A
C2223      C2224   1.409       .  A
C2224      N2225   1.439       .  S
N2225      H2229   1.046       .  S
N2225      H2230   1.046       .  S
N2228      H2231   1.046   1_545  S
N2228      H2232   1.046   1_545  S
C2233      C2234   1.407   1_455  A
C2233      C2238   1.408       .  A
C2233      H2240   1.084       .  S
C2234      C2235   1.411       .  A
C2235      C2236   1.408       .  A
C2235      N2242   1.438       .  S
C2236      C2237   1.409   1_655  A
C2236      H2241   1.083       .  S
C2237      C2238   1.414       .  A
C2238      N2239   1.438       .  S
N2239      H2243   1.046       .  S
N2239      H2244   1.046       .  S
N2242      H2245   1.046       .  S
N2242      H2246   1.046       .  S
C2247      C2248   1.406       .  A
C2247      C2252   1.411       .  A
C2247      H2254   1.083       .  S
C2248      C2249   1.416       .  A
C2249      C2250   1.398       .  A
C2249      N2256   1.439       .  S
C2250      C2251   1.400       .  A
C2250      H2255   1.084       .  S
C2251      C2252   1.413       .  A
C2252      N2253   1.437       .  S
N2253      H2257   1.046       .  S
N2253      H2258   1.045       .  S
N2256      H2259   1.046       .  S
N2256      H2260   1.046       .  S
C2261      C2262   1.404       .  A
C2261      C2266   1.406       .  A
C2261      H2268   1.083       .  S
C2262      C2263   1.410       .  A
C2263      C2264   1.401       .  A
C2263      N2270   1.433       .  S
C2264      C2265   1.405       .  A
C2264      H2269   1.084       .  S
C2265      C2266   1.418       .  A
C2266      N2267   1.438       .  S
N2267      H2271   1.046       .  S
N2267      H2272   1.046       .  S
N2270      H2273   1.046       .  S
N2270      H2274   1.046       .  S
C2275      C2276   1.409       .  A
C2275      C2280   1.409       .  A
C2275      H2282   1.083       .  S
C2276      C2277   1.414       .  A
C2277      C2278   1.406       .  A
C2277      N2284   1.438       .  S
C2278      C2279   1.406       .  A
C2278      H2283   1.084       .  S
C2279      C2280   1.410       .  A
C2280      N2281   1.437       .  S
N2281      H2285   1.046       .  S
N2281      H2286   1.046       .  S
N2284      H2287   1.046       .  S
N2284      H2288   1.046       .  S
C2289      C2290   1.399       .  A
C2289      C2294   1.402       .  A
C2289      H2296   1.084       .  S
C2290      C2291   1.409       .  A
C2291      C2292   1.401       .  A
C2291      N2298   1.439       .  S
C2292      C2293   1.405       .  A
C2292      H2297   1.083       .  S
C2293      C2294   1.417       .  A
C2294      N2295   1.438       .  S
N2295      H2299   1.046       .  S
N2295      H2300   1.046       .  S
N2298      H2301   1.046       .  S
N2298      H2302   1.046       .  S
C2303      C2304   1.403   1_455  A
C2303      C2308   1.406       .  A
C2303      H2310   1.084       .  S
C2304      C2305   1.417       .  A
C2305      C2306   1.408       .  A
C2305      N2312   1.438       .  S
C2306      C2307   1.404   1_655  A
C2306      H2311   1.084       .  S
C2307      C2308   1.417       .  A
C2308      N2309   1.438       .  S
N2309      H2313   1.046       .  S
N2309      H2314   1.045       .  S
N2312      H2315   1.045       .  S
N2312      H2316   1.046       .  S
C2317      C2318   1.405       .  A
C2317      C2322   1.414       .  A
C2317      H2324   1.083       .  S
C2318      C2319   1.413       .  A
C2319      C2320   1.404       .  A
C2319      N2326   1.439       .  S
C2320      C2321   1.402       .  A
C2320      H2325   1.084       .  S
C2321      C2322   1.413       .  A
C2322      N2323   1.437   1_655  S
N2323      H2327   1.046       .  S
N2323      H2328   1.045       .  S
N2326      H2329   1.046       .  S
N2326      H2330   1.046       .  S
C2331      C2332   1.408       .  A
C2331      C2336   1.402       .  A
C2331      H2338   1.084       .  S
C2332      C2333   1.415       .  A
C2333      C2334   1.396       .  A
C2333      N2340   1.432       .  S
C2334      C2335   1.403       .  A
C2334      H2339   1.084       .  S
C2335      C2336   1.408       .  A
C2336      N2337   1.438       .  S
N2337      H2341   1.046       .  S
N2337      H2342   1.045       .  S
N2340      H2343   1.045       .  S
N2340      H2344   1.045       .  S
C2345      C2346   1.403       .  A
C2345      C2350   1.408       .  A
C2345      H2352   1.084       .  S
C2346      C2347   1.414       .  A
C2347      C2348   1.400       .  A
C2347      N2354   1.439       .  S
C2348      C2349   1.400       .  A
C2348      H2353   1.084       .  S
C2349      C2350   1.414       .  A
C2350      N2351   1.438       .  S
N2351      H2356   1.045       .  S
N2354      H2357   1.045       .  S
N2354      H2358   1.046       .  S
C2359      C2360   1.407       .  A
C2359      C2364   1.408       .  A
C2359      H2366   1.083       .  S
C2360      C2361   1.413       .  A
C2361      C2362   1.407       .  A
C2361      N2368   1.438       .  S
C2362      C2363   1.407       .  A
C2362      H2367   1.083       .  S
C2363      C2364   1.413       .  A
C2364      N2365   1.438       .  S
N2365      H2369   1.046       .  S
N2365      H2370   1.046       .  S
N2368      H2371   1.046       .  S
N2368      H2372   1.046       .  S
C2373      C2374   1.408       .  A
C2373      C2378   1.407       .  A
C2373      H2380   1.084       .  S
C2374      C2375   1.419       .  A
C2375      C2376   1.403       .  A
C2375      N2382   1.440       .  S
C2376      C2377   1.406       .  A
C2376      H2381   1.084       .  S
C2377      C2378   1.411       .  A
N2379      H2383   1.046       .  S
N2379      H2384   1.046       .  S
N2382      H2385   1.042       .  S
N2382      H2386   1.046       .  S
C2387      C2388   1.405       .  A
C2387      C2392   1.400       .  A
C2388      C2389   1.415       .  A
C2389      C2390   1.409       .  A
C2389      N2396   1.437       .  S
C2390      C2391   1.405       .  A
C2390      H2395   1.083       .  S
C2391      C2392   1.412       .  A
N2393      H2397   1.046   1_545  S
N2393      H2398   1.045   1_545  S
N2396      H2399   1.046       .  S
N2396      H2400   1.046       .  S
C2401      C2402   1.402       .  A
C2401      C2406   1.404       .  A
C2401      H2408   1.084       .  S
C2402      C2403   1.411       .  A
C2403      C2404   1.412       .  A
C2403      N2410   1.437       .  S
C2404      C2405   1.406       .  A
C2404      H2409   1.083       .  S
C2405      C2406   1.413       .  A
C2406      N2407   1.439       .  S
N2407      H2411   1.046       .  S
N2407      H2412   1.045       .  S
N2410      H2413   1.045       .  S
N2410      H2414   1.046       .  S
C2415      C2416   1.403       .  A
C2415      C2420   1.401       .  A
C2415      H2422   1.084       .  S
C2416      C2417   1.419       .  A
C2417      C2418   1.396       .  A
C2417      N2424   1.433       .  S
C2418      C2419   1.400       .  A
C2418      H2423   1.084       .  S
C2419      C2420   1.414       .  A
C2420      N2421   1.439       .  S
N2421      H2425   1.046       .  S
N2421      H2426   1.046       .  S
N2424      H2427   1.046       .  S
N2424      H2428   1.045       .  S
C2429      C2430   1.406       .  A
C2429      C2434   1.407       .  A
C2429      H2436   1.083       .  S
C2430      C2431   1.415       .  A
C2431      C2432   1.406       .  A
C2431      N2438   1.438       .  S
C2432      C2433   1.405       .  A
C2432      H2437   1.083       .  S
C2433      C2434   1.414       .  A
C2434      N2435   1.438       .  S
N2435      H2439   1.046       .  S
N2435      H2440   1.046       .  S
N2438      H2441   1.046       .  S
N2438      H2442   1.046       .  S
C2443      C2444   1.402       .  A
C2443      C2448   1.412       .  A
C2443      H2450   1.084       .  S
C2444      C2445   1.413       .  A
C2445      C2446   1.402       .  A
C2445      N2452   1.439       .  S
C2446      C2447   1.402       .  A
C2446      H2451   1.084       .  S
C2447      C2448   1.416       .  A
C2448      N2449   1.437       .  S
N2449      H2453   1.046       .  S
N2449      H2454   1.046       .  S
N2452      H2455   1.046       .  S
N2452      H2456   1.046       .  S
C2457      C2458   1.400       .  A
C2457      C2462   1.393       .  A
C2457      H2464   1.085       .  S
C2458      C2459   1.416       .  A
C2459      C2460   1.399       .  A
C2459      N2466   1.440       .  S
C2460      C2461   1.403       .  A
C2460      H2465   1.084       .  S
C2461      C2462   1.415       .  A
C2462      N2463   1.433       .  S
N2463      H2467   1.045       .  S
N2463      H2468   1.046       .  S
N2466      H2469   1.042       .  S
N2466      H2470   1.046       .  S
C2471      C2472   1.401       .  A
C2471      C2476   1.399       .  A
C2471      H2478   1.084       .  S
C2472      C2473   1.411       .  A
C2473      C2474   1.410       .  A
C2473      N2480   1.437       .  S
C2474      C2475   1.408       .  A
C2474      H2479   1.083       .  S
C2475      C2476   1.417       .  A
C2476      N2477   1.439       .  S
N2477      H2481   1.046       .  S
N2477      H2482   1.046       .  S
N2480      H2483   1.045       .  S
N2480      H2484   1.046       .  S
C2485      C2486   1.403       .  A
C2485      C2490   1.406       .  A
C2485      H2492   1.084       .  S
C2486      C2487   1.416       .  A
C2487      C2488   1.406       .  A
C2487      N2494   1.438       .  S
C2488      C2489   1.403       .  A
C2488      H2493   1.084       .  S
C2489      C2490   1.416       .  A
C2490      N2491   1.438       .  S
N2491      H2495   1.046       .  S
N2491      H2496   1.045       .  S
N2494      H2497   1.045       .  S
N2494      H2498   1.046       .  S
C2499      C2500   1.406       .  A
C2499      C2504   1.409       .  A
C2499      H2506   1.083       .  S
C2500      C2501   1.412   1_655  A
C2501      C2502   1.404       .  A
C2501      N2508   1.432       .  S
C2502      C2503   1.406       .  A
C2502      H2507   1.084       .  S
C2503      C2504   1.418   1_455  A
C2504      N2505   1.438       .  S
N2505      H2509   1.046       .  S
N2505      H2510   1.046       .  S
N2508      H2511   1.046       .  S
N2508      H2512   1.046       .  S
C2513      C2514   1.406       .  A
C2513      C2518   1.411       .  A
C2513      H2520   1.084       .  S
C2514      C2515   1.410       .  A
C2515      C2516   1.398       .  A
C2515      N2522   1.439       .  S
C2516      C2517   1.406       .  A
C2516      H2521   1.083       .  S
C2517      C2518   1.415       .  A
C2518      N2519   1.437       .  S
N2519      H2523   1.046       .  S
N2519      H2524   1.046       .  S
N2522      H2525   1.046       .  S
N2522      H2526   1.046       .  S
C2527      C2528   1.408   1_554  A
C2527      C2532   1.404   1_554  A
C2527      H2534   1.085       .  S
C2528      C2529   1.415       .  A
C2529      C2530   1.404       .  A
C2529      N2536   1.439       .  S
C2530      C2531   1.408       .  A
C2530      H2535   1.085       .  S
C2531      C2532   1.415       .  A
C2532      N2533   1.439   1_556  S
N2533      H2537   1.046       .  S
N2533      H2538   1.042   1_554  S
N2536      H2539   1.042       .  S
N2536      H2540   1.046       .  S
C2541      C2542   1.404       .  A
C2541      C2546   1.406       .  A
C2541      H2548   1.083       .  S
C2542      C2543   1.416       .  A
C2543      C2544   1.409       .  A
C2544      C2545   1.403       .  A
C2544      H2549   1.083       .  S
C2545      C2546   1.416       .  A
C2546      N2547   1.439       .  S
N2547      H2551   1.046       .  S
N2547      H2552   1.046       .  S
N2550      H2553   1.046   1_545  S
N2550      H2554   1.046       .  S
C2555      C2556   1.400       .  A
C2555      C2560   1.400       .  A
C2555      H2562   1.084       .  S
C2556      C2557   1.406       .  A
C2557      C2558   1.401       .  A
C2557      N2564   1.438       .  S
C2558      C2559   1.407       .  A
C2558      H2563   1.084       .  S
C2559      C2560   1.414       .  A
C2560      N2561   1.438       .  S
N2561      H2565   1.046       .  S
N2561      H2566   1.046       .  S
N2564      H2567   1.046       .  S
N2564      H2568   1.046       .  S
C2569      C2570   1.406   1_665  A
C2569      C2574   1.405       .  A
C2569      H2576   1.083   1_565  S
C2570      C2571   1.415   1_545  A
C2571      C2572   1.406   1_556  A
C2571      N2578   1.438   1_556  S
C2572      C2573   1.405   1_455  A
C2572      H2577   1.083       .  S
C2573      C2574   1.415   1_554  A
C2574      N2575   1.438       .  S
N2575      H2579   1.046       .  S
N2575      H2580   1.046       .  S
N2578      H2582   1.046       .  S
C2583      C2584   1.406       .  A
C2583      C2588   1.404       .  A
C2583      H2590   1.084       .  S
C2584      C2585   1.415       .  A
C2585      C2586   1.404       .  A
C2585      N2592   1.437       .  S
C2586      C2587   1.409       .  A
C2586      H2591   1.084       .  S
C2587      C2588   1.414       .  A
C2588      N2589   1.438       .  S
N2589      H2593   1.046       .  S
N2589      H2594   1.045       .  S
N2592      H2595   1.043       .  S
N2592      H2596   1.045       .  S
C2597      C2598   1.405       .  A
C2597      C2602   1.397       .  A
C2597      H2604   1.084       .  S
C2598      C2599   1.413       .  A
C2599      C2600   1.400       .  A
C2599      N2606   1.438       .  S
C2600      C2601   1.401       .  A
C2600      H2605   1.084       .  S
C2601      C2602   1.415       .  A
C2602      N2603   1.439       .  S
N2603      H2607   1.046       .  S
N2603      H2608   1.041       .  S
N2606      H2610   1.046       .  S
C2611      C2612   1.401       .  A
C2611      C2616   1.404       .  A
C2611      H2618   1.084       .  S
C2612      C2613   1.414       .  A
C2613      C2614   1.397       .  A
C2613      N2620   1.440       .  S
C2614      C2615   1.404       .  A
C2614      H2619   1.084       .  S
C2615      C2616   1.421       .  A
C2616      N2617   1.440       .  S
N2617      H2621   1.046       .  S
N2617      H2622   1.040       .  S
N2620      H2623   1.043       .  S
