geometry optimzed in LAMMPS
_audit_creation_date              2020-12-01 
_audit_creation_method            'lammps2cif' 
_symmetry_space_group_name_H-M    'P1' 
_symmetry_Int_Tables_number       1 
_symmetry_cell_setting            triclinic 
loop_ 
_symmetry_equiv_pos_as_xyz 
  x,y,z 
_cell_length_a                    99.4079787 
_cell_length_b                    99.39196271853102 
_cell_length_c                    99.41859736288261 
_cell_angle_alpha                 89.92186066638955 
_cell_angle_beta                  89.88895852079311 
_cell_angle_gamma                 90.01733395157142 
loop_ 
_atom_site_label 
_atom_site_type_symbol 
_atom_site_fract_x 
_atom_site_fract_y 
_atom_site_fract_z 
_atom_site_charge 
N1          N  0.44544732  0.60516881  0.71315998    -0.27300
N2          N  0.44474963  0.59570564  0.72245577    -0.35200
C3          C  0.45358458  0.59837286  0.73225188     0.01000
C4          C  0.46027249  0.61018955  0.72915294     0.07100
C5          C  0.45484723  0.61424598  0.71689055    -0.06000
H6          H  0.45493480  0.59216269  0.74109189     0.07700
H7          H  0.45723710  0.62328009  0.71130117     0.08900
Cu8        Cu  0.43149796  0.57981460  0.72189248     0.44200
Cu9        Cu  0.43299066  0.60454351  0.69625761     0.42000
Cu10       Cu  0.41048700  0.57450447  0.69318894     0.43900
N11         N  0.41849432  0.56379191  0.72030622    -0.34700
N12         N  0.41095349  0.56132718  0.70966215    -0.28900
C13         C  0.40468238  0.54940713  0.71151703    -0.05000
C14         C  0.40845228  0.54429121  0.72398431     0.07200
C15         C  0.41715187  0.55374468  0.72922379     0.01000
H16         H  0.39810266  0.54470818  0.70425309     0.08600
H17         H  0.42267669  0.55303820  0.73856610     0.07700
N18         N  0.41221693  0.58994223  0.67886870    -0.36100
N19         N  0.41997393  0.60071178  0.68019939    -0.28300
C20         C  0.41811418  0.60883565  0.66952175    -0.03600
C21         C  0.40889459  0.60293503  0.66093060     0.05100
C22         C  0.40536912  0.59095551  0.66720249     0.03100
H23         H  0.42309063  0.61842158  0.66813789     0.08300
H24         H  0.39800217  0.58372249  0.66377947     0.07100
N25         N  0.36979888  0.68124847  0.52485149    -0.27300
N26         N  0.36180135  0.67859640  0.51458079    -0.35200
C27         C  0.36482656  0.68685629  0.50430902     0.01000
C28         C  0.37518083  0.69528008  0.50820997     0.07100
C29         C  0.37811318  0.69142233  0.52133878    -0.06000
H30         H  0.35957058  0.68698717  0.49478959     0.07700
H31         H  0.38575356  0.69562539  0.52782690     0.08900
Cu32       Cu  0.34620840  0.66478622  0.51510403     0.44200
Cu33       Cu  0.36851743  0.67068196  0.54307315     0.42000
Cu34       Cu  0.33837147  0.64929231  0.54664511     0.43900
N35         N  0.32891034  0.65359907  0.51824159    -0.34700
N36         N  0.32554315  0.64844739  0.53003877    -0.28900
C37         C  0.31313215  0.64304120  0.52907815    -0.05000
C38         C  0.30856332  0.64483944  0.51600719     0.07200
C39         C  0.31888151  0.65148460  0.50943936     0.01000
H40         H  0.30785052  0.63819549  0.53727875     0.08600
H41         H  0.31884784  0.65506062  0.49915552     0.07700
N42         N  0.35391673  0.65030118  0.56074292    -0.36100
N43         N  0.36474663  0.65795153  0.55949479    -0.28300
C44         C  0.37300736  0.65548448  0.56994428    -0.03600
C45         C  0.36719456  0.64579556  0.57824093     0.05100
C46         C  0.35507726  0.64277278  0.57195966     0.03100
H47         H  0.38269462  0.66025654  0.57125346     0.08300
H48         H  0.34785495  0.63518145  0.57488209     0.07100
N49         N  0.08443327  0.59660967  0.27128668    -0.27300
N50         N  0.08622362  0.58747163  0.26181037    -0.35200
C51         C  0.07730642  0.58940534  0.25189743     0.01000
C52         C  0.06939329  0.60032566  0.25514397     0.07100
C53         C  0.07409103  0.60463604  0.26759179    -0.06000
H54         H  0.07662546  0.58324555  0.24295920     0.07700
H55         H  0.07046612  0.61312838  0.27334580     0.08900
Cu56       Cu  0.10054101  0.57259344  0.26244247     0.44200
Cu57       Cu  0.09692718  0.59725974  0.28833259     0.42000
Cu58       Cu  0.12218304  0.56945161  0.29072158     0.43900
N59         N  0.11427898  0.55726422  0.26422276    -0.34700
N60         N  0.12214775  0.55558284  0.27478251    -0.28900
C61         C  0.12917948  0.54407142  0.27309734    -0.05000
C62         C  0.12553751  0.53841727  0.26083189     0.07200
C63         C  0.11612240  0.54711216  0.25553025     0.01000
H64         H  0.13632455  0.54010351  0.28026611     0.08600
H65         H  0.11059738  0.54587015  0.24624668     0.07700
N66         N  0.12027060  0.58535756  0.30453096    -0.36100
N67         N  0.11132033  0.59521227  0.30371518    -0.28300
C68         C  0.11321861  0.60369616  0.31413114    -0.03600
C69         C  0.12392595  0.59913356  0.32185975     0.05100
C70         C  0.12803473  0.58740604  0.31545184     0.03100
H71         H  0.10737721  0.61272267  0.31580995     0.08300
H72         H  0.13604692  0.58072932  0.31853061     0.07100
N73         N  0.16197136  0.68346089  0.45616834    -0.27300
N74         N  0.17007367  0.68118097  0.46644434    -0.35200
C75         C  0.16804250  0.69056749  0.47591111     0.01000
C76         C  0.15813452  0.69930690  0.47155817     0.07100
C77         C  0.15446062  0.69445947  0.45894518    -0.06000
H78         H  0.17346830  0.69100752  0.48532366     0.07700
H79         H  0.14713506  0.69876943  0.45216312     0.08900
Cu80       Cu  0.18428831  0.66601703  0.46722021     0.44200
Cu81       Cu  0.16231542  0.67125288  0.43896329     0.42000
Cu82       Cu  0.18948218  0.64534487  0.43864691     0.43900
N83         N  0.19999600  0.65244033  0.46598716    -0.34700
N84         N  0.20235207  0.64499596  0.45524646    -0.28900
C85         C  0.21406752  0.63836815  0.45701318    -0.05000
C86         C  0.21926482  0.64184301  0.46951055     0.07200
C87         C  0.20999583  0.65070750  0.47489584     0.01000
H88         H  0.21853765  0.63172337  0.44965750     0.08600
H89         H  0.21085133  0.65610188  0.48430187     0.07700
N90         N  0.17476901  0.64760138  0.42379391    -0.36100
N91         N  0.16510727  0.65677936  0.42383555    -0.28300
C92         C  0.15725709  0.65486756  0.41295111    -0.03600
C93         C  0.16217563  0.64400754  0.40562117     0.05100
C94         C  0.17326966  0.63969368  0.41291183     0.03100
H95         H  0.14832478  0.66069706  0.41084839     0.08300
H96         H  0.17977821  0.63130155  0.41054561     0.07100
N97         N  0.08345253  0.39090872  0.21071809    -0.27300
N98         N  0.08727733  0.39922428  0.22032241    -0.35200
C99         C  0.07879308  0.39821835  0.23079329     0.01000
C100        C  0.06890925  0.38880666  0.22785421     0.07100
C101        C  0.07224839  0.38439216  0.21491320    -0.06000
H102        H  0.07977585  0.40407221  0.23989733     0.07700
H103        H  0.06679688  0.37726240  0.20880084     0.08900
Cu104      Cu  0.10296021  0.41278772  0.21849791     0.44200
Cu105      Cu  0.09410615  0.38962368  0.19240669     0.42000
Cu106      Cu  0.11787564  0.41796391  0.18629137     0.43900
N107        N  0.11527026  0.42901748  0.21425371    -0.34700
N108        N  0.12018365  0.43158871  0.20216170    -0.28900
C109        C  0.12612597  0.44381099  0.20237970    -0.05000
C110        C  0.12493385  0.44903535  0.21529235     0.07200
C111        C  0.11806752  0.43933002  0.22250350     0.01000
H112        H  0.13078374  0.44858723  0.19376941     0.08600
H113        H  0.11465776  0.44006208  0.23281847     0.07700
N114        N  0.11521588  0.40153783  0.17338125    -0.36100
N115        N  0.10707244  0.39121029  0.17565489    -0.28300
C116        C  0.10854533  0.38225125  0.16554800    -0.03600
C117        C  0.11797137  0.38717435  0.15644128     0.05100
C118        C  0.12188068  0.39944903  0.16175621     0.03100
H119        H  0.10298317  0.37293005  0.16477350     0.08300
H120        H  0.12924092  0.40630080  0.15756292     0.07100
N121        N  0.15267299  0.31571232  0.01406879    -0.27300
N122        N  0.16088579  0.31844848  0.00396526    -0.35200
C123        C  0.15804829  0.31032130  0.99358270     0.01000
C124        C  0.14747590  0.30203918  0.99723907     0.07100
C125        C  0.14438445  0.30564087  0.01036506    -0.06000
H126        H  0.16346098  0.31031639  0.98413206     0.07700
H127        H  0.13657223  0.30140085  0.01666679     0.08900
Cu128      Cu  0.17591874  0.33275238  0.00472671     0.44200
Cu129      Cu  0.15325619  0.32634890  0.03210132     0.42000
Cu130      Cu  0.18134283  0.35056610  0.03554151     0.43900
N131        N  0.19190915  0.34567527  0.00758048    -0.34700
N132        N  0.19448514  0.35188595  0.01902924    -0.28900
C133        C  0.20643411  0.35827025  0.01784031    -0.05000
C134        C  0.21144187  0.35610942  0.00493024     0.07200
C135        C  0.20192832  0.34801263  0.99882149     0.01000
H136        H  0.21127555  0.36378434  0.02585996     0.08600
H137        H  0.20262880  0.34339179  0.98899999     0.07700
N138        N  0.16572130  0.34805656  0.04960174    -0.36100
N139        N  0.15568464  0.33939442  0.04832778    -0.28300
C140        C  0.14739161  0.34058363  0.05899956    -0.03600
C141        C  0.15232086  0.35052456  0.06747185     0.05100
C142        C  0.16400648  0.35494886  0.06114181     0.03100
H143        H  0.13855139  0.33442920  0.06053030     0.08300
H144        H  0.17073853  0.36275569  0.06460781     0.07100
N145        N  0.44701774  0.39087011  0.77414430    -0.27300
N146        N  0.45018277  0.40262347  0.76877955    -0.35200
C147        C  0.46018383  0.40099872  0.75986529     0.01000
C148        C  0.46357123  0.38753277  0.75939627     0.07100
C149        C  0.45498072  0.38134689  0.76859887    -0.06000
H150        H  0.46449203  0.40905276  0.75392278     0.07700
H151        H  0.45470313  0.37079259  0.77124938     0.08900
Cu152      Cu  0.44026937  0.42036704  0.77270673     0.44200
Cu153      Cu  0.43213175  0.38918970  0.78904300     0.42000
Cu154      Cu  0.41125848  0.41990343  0.79353670     0.43900
N155        N  0.42721663  0.43638522  0.77395321    -0.34700
N156        N  0.41601094  0.43619764  0.78110280    -0.28900
C157        C  0.40920460  0.44771532  0.77876811    -0.05000
C158        C  0.41665751  0.45551974  0.76985537     0.07200
C159        C  0.42796024  0.44794235  0.76700827     0.01000
H160        H  0.39960720  0.45024740  0.78324287     0.08600
H161        H  0.43594624  0.45042542  0.76002432     0.07700
N162        N  0.41037021  0.40286223  0.80586997    -0.36100
N163        N  0.41776792  0.39188783  0.80431822    -0.28300
C164        C  0.41497329  0.38330203  0.81446146    -0.03600
C165        C  0.40546924  0.38912741  0.82290977     0.05100
C166        C  0.40274629  0.40149593  0.81700329     0.03100
H167        H  0.41983115  0.37365833  0.81581841     0.08300
H168        H  0.39573395  0.40903873  0.82049445     0.07100
N169        N  0.36418251  0.30968228  0.95890458    -0.27300
N170        N  0.35271374  0.30865729  0.96555353    -0.35200
C171        C  0.35402347  0.29966712  0.97550273     0.01000
C172        C  0.36698688  0.29466446  0.97529578     0.07100
C173        C  0.37318104  0.30121326  0.96455126    -0.06000
H174        H  0.34619173  0.29736768  0.98271917     0.07700
H175        H  0.38361873  0.30047816  0.96155348     0.08900
Cu176      Cu  0.33621516  0.32071404  0.96257746     0.44200
Cu177      Cu  0.36666785  0.32366307  0.94332642     0.42000
Cu178      Cu  0.33793200  0.34771133  0.93972980     0.43900
N179        N  0.32138301  0.33503960  0.96136735    -0.34700
N180        N  0.32193403  0.34549298  0.95319183    -0.28900
C181        C  0.31083860  0.35309245  0.95513894    -0.05000
C182        C  0.30298787  0.34697993  0.96500648     0.07200
C183        C  0.31004348  0.33557392  0.96865427     0.01000
H184        H  0.30849633  0.36213688  0.94955300     0.08600
H185        H  0.30716535  0.32818161  0.97612471     0.07700
N186        N  0.35457539  0.34659319  0.92689788    -0.36100
N187        N  0.36494293  0.33831232  0.92824535    -0.28300
C188        C  0.37352673  0.34035388  0.91791009    -0.03600
C189        C  0.36821658  0.35017599  0.90955172     0.05100
C190        C  0.35625152  0.35391771  0.91562764     0.03100
H191        H  0.38271232  0.33473705  0.91631628     0.08300
H192        H  0.34918439  0.36138365  0.91206411     0.07100
N193        N  0.41384357  0.78068265  0.42782297    -0.27300
N194        N  0.42494911  0.77347174  0.42878645    -0.35200
C195        C  0.42376635  0.76462488  0.43891052     0.01000
C196        C  0.41126775  0.76620195  0.44481745     0.07100
C197        C  0.40514377  0.77642200  0.43740249    -0.06000
H198        H  0.43128462  0.75715307  0.44135540     0.07700
H199        H  0.39510737  0.78038298  0.43882164     0.08900
Cu200      Cu  0.44086601  0.77497788  0.41567134     0.44200
Cu201      Cu  0.41203399  0.79579476  0.41308468     0.42000
Cu202      Cu  0.44045509  0.79835366  0.38842619     0.43900
N203        N  0.45579531  0.77597036  0.40139685    -0.34700
N204        N  0.45581830  0.78435771  0.39108917    -0.28900
C205        C  0.46733577  0.78263550  0.38409383    -0.05000
C206        C  0.47486433  0.77271982  0.39044872     0.07200
C207        C  0.46716703  0.76875586  0.40133337     0.01000
H208        H  0.47028686  0.78861330  0.37548009     0.08600
H209        H  0.46976857  0.76135786  0.40888646     0.07700
N210        N  0.42436758  0.81176841  0.38968546    -0.36100
N211        N  0.41418811  0.81082442  0.39827254    -0.28300
C212        C  0.40587134  0.82135133  0.39625822    -0.03600
C213        C  0.41109133  0.82939682  0.38608233     0.05100
C214        C  0.42279709  0.82292585  0.38214079     0.03100
H215        H  0.39679927  0.82318456  0.40199597     0.08300
H216        H  0.42966411  0.82601949  0.37427004     0.07100
N217        N  0.33022537  0.96402384  0.34647366    -0.27300
N218        N  0.32745341  0.96915685  0.33455950    -0.35200
C219        C  0.31809553  0.97871875  0.33574917     0.01000
C220        C  0.31465659  0.97996520  0.34913573     0.07100
C221        C  0.32250936  0.97037375  0.35574000    -0.06000
H222        H  0.31446999  0.98472740  0.32743065     0.07700
H223        H  0.32306778  0.96863520  0.36646648     0.08900
Cu224      Cu  0.33763880  0.96487932  0.31725795     0.44200
Cu225      Cu  0.34519021  0.94920416  0.34810357     0.42000
Cu226      Cu  0.36479197  0.94303652  0.31549278     0.43900
N227        N  0.34925457  0.96361354  0.30036524    -0.34700
N228        N  0.35986386  0.95573263  0.29929278    -0.28900
C229        C  0.36549935  0.95782496  0.28705253    -0.05000
C230        C  0.35781642  0.96738205  0.28021859     0.07200
C231        C  0.34773609  0.97084133  0.28911240     0.01000
H232        H  0.37439732  0.95275373  0.28336750     0.08600
H233        H  0.33998099  0.97833734  0.28766947     0.07700
N234        N  0.36581289  0.93147000  0.33324661    -0.36100
N235        N  0.35928211  0.93378510  0.34468336    -0.28300
C236        C  0.36235080  0.92395324  0.35353277    -0.03600
C237        C  0.37099204  0.91488394  0.34740838     0.05100
C238        C  0.37300115  0.92005117  0.33459725     0.03100
H239        H  0.35815859  0.92316937  0.36355435     0.08300
H240        H  0.37919443  0.91576684  0.32673847     0.07100
N241        N  0.62708683  0.71876718  0.42033597    -0.27300
N242        N  0.62048288  0.72986951  0.41721334    -0.35200
C243        C  0.62475920  0.74000797  0.42499099     0.01000
C244        C  0.63450631  0.73513440  0.43357300     0.07100
C245        C  0.63568217  0.72156541  0.43045415    -0.06000
H246        H  0.62057969  0.75005794  0.42485717     0.07700
H247        H  0.64219971  0.71428578  0.43524115     0.08900
Cu248      Cu  0.60471293  0.73060787  0.40387414     0.44200
Cu249      Cu  0.62360233  0.70067018  0.41021281     0.42000
Cu250      Cu  0.59476496  0.70052828  0.38672086     0.43900
N251        N  0.58739988  0.72927919  0.39265097    -0.34700
N252        N  0.58346741  0.71826602  0.38637845    -0.28900
C253        C  0.57128934  0.72056353  0.38090073    -0.05000
C254        C  0.56740751  0.73368718  0.38387436     0.07200
C255        C  0.57790972  0.73879575  0.39144418     0.01000
H256        H  0.56552285  0.71309229  0.37550593     0.08600
H257        H  0.57834419  0.74842322  0.39647157     0.07700
N258        N  0.60865627  0.68482908  0.38863257    -0.36100
N259        N  0.61901340  0.68495721  0.39699542    -0.28300
C260        C  0.62639992  0.67377773  0.39499698    -0.03600
C261        C  0.62050475  0.66621173  0.38487813     0.05100
C262        C  0.60919073  0.67350102  0.38119868     0.03100
H263        H  0.63550965  0.67142760  0.40044451     0.08300
H264        H  0.60213947  0.67100431  0.37330999     0.07100
N265        N  0.69545266  0.53161788  0.33923206    -0.27300
N266        N  0.69284114  0.52098020  0.33174875    -0.35200
C267        C  0.70175576  0.51123914  0.33450058     0.01000
C268        C  0.71046889  0.51592045  0.34424356     0.07100
C269        C  0.70627731  0.52895496  0.34694583    -0.06000
H270        H  0.70185472  0.50145042  0.32975378     0.07700
H271        H  0.71047858  0.53578828  0.35428400     0.08900
Cu272      Cu  0.67731525  0.52025945  0.31813877     0.44200
Cu273      Cu  0.68305375  0.54847057  0.33877713     0.42000
Cu274      Cu  0.65611445  0.54916109  0.31281432     0.43900
N275        N  0.66315481  0.52140284  0.30314275    -0.34700
N276        N  0.65555750  0.53200221  0.30060057    -0.28900
C277        C  0.64856056  0.52961959  0.28921041    -0.05000
C278        C  0.65186735  0.51683324  0.28454408     0.07200
C279        C  0.66122414  0.51207203  0.29364209     0.01000
H280        H  0.64187838  0.53678353  0.28447845     0.08600
H281        H  0.66695885  0.50285182  0.29296604     0.07700
N282        N  0.65868453  0.56362188  0.32794391    -0.36100
N283        N  0.66811111  0.56308532  0.33734040    -0.28300
C284        C  0.66630234  0.57332789  0.34599310    -0.03600
C285        C  0.65529395  0.58076372  0.34187833     0.05100
C286        C  0.65078543  0.57439291  0.33033449     0.03100
H287        H  0.67258861  0.57523178  0.35465532     0.08300
H288        H  0.64215099  0.57716939  0.32433382     0.07100
N289        N  0.32609052  0.03347434  0.13135040    -0.27300
N290        N  0.32417270  0.02538788  0.14173000    -0.35200
C291        C  0.31434278  0.01660848  0.13889884     0.01000
C292        C  0.30969892  0.01926088  0.12611093     0.07100
C293        C  0.31730878  0.03007932  0.12156673    -0.06000
H294        H  0.31096665  0.00870764  0.14560087     0.07700
H295        H  0.31679385  0.03481071  0.11177570     0.08900
Cu296      Cu  0.33531337  0.02608159  0.15909914     0.44200
Cu297      Cu  0.34115380  0.04816791  0.13172260     0.42000
Cu298      Cu  0.36076254  0.05075241  0.16393562     0.43900
N299        N  0.34756075  0.02635957  0.17572102    -0.34700
N300        N  0.35706206  0.03537459  0.17790035    -0.28900
C301        C  0.36342455  0.03216596  0.18948060    -0.05000
C302        C  0.35761129  0.02049951  0.19467176     0.07200
C303        C  0.34760344  0.01721909  0.18562788     0.01000
H304        H  0.37189769  0.03763191  0.19354838     0.08600
H305        H  0.34085389  0.00868998  0.18612945     0.07700
N306        N  0.36251208  0.06379100  0.14741708    -0.36100
N307        N  0.35596590  0.06254818  0.13587157    -0.28300
C308        C  0.35996056  0.07243058  0.12747663    -0.03600
C309        C  0.36928210  0.08041976  0.13403773     0.05100
C310        C  0.37065218  0.07461332  0.14664727     0.03100
H311        H  0.35610870  0.07388936  0.11740877     0.08300
H312        H  0.37722994  0.07790442  0.15464965     0.07100
N313        N  0.40899685  0.22058059  0.06457883    -0.27300
N314        N  0.41808761  0.23005550  0.06654773    -0.35200
C315        C  0.41573760  0.24038026  0.05817874     0.01000
C316        C  0.40452051  0.23741323  0.05051065     0.07100
C317        C  0.40054174  0.22469189  0.05480775    -0.06000
H318        H  0.42219704  0.24909452  0.05731225     0.07700
H319        H  0.39227628  0.21876797  0.05095247     0.08900
Cu320      Cu  0.43425275  0.22807343  0.07932391     0.44200
Cu321      Cu  0.40965818  0.20231565  0.07493472     0.42000
Cu322      Cu  0.44115609  0.19603419  0.09406706     0.43900
N323        N  0.45158201  0.22402689  0.08990705    -0.34700
N324        N  0.45464398  0.21210728  0.09492681    -0.28900
C325        C  0.46708862  0.21274117  0.10030342    -0.05000
C326        C  0.47188523  0.22578151  0.09875643     0.07200
C327        C  0.46179946  0.23256465  0.09202875     0.01000
H328        H  0.47224254  0.20437633  0.10498325     0.08600
H329        H  0.46204918  0.24285331  0.08846864     0.07700
N330        N  0.42490873  0.18274815  0.09293537    -0.36100
N331        N  0.41356439  0.18511364  0.08637124    -0.28300
C332        C  0.40512413  0.17468969  0.08833849    -0.03600
C333        C  0.41145624  0.16522021  0.09637618     0.05100
C334        C  0.42396270  0.17072541  0.09912928     0.03100
H335        H  0.39510338  0.17402773  0.08416356     0.08300
H336        H  0.43170312  0.16648458  0.10548198     0.07100
N337        N  0.61936634  0.27865699  0.05271519    -0.27300
N338        N  0.61176312  0.26847737  0.05668212    -0.35200
C339        C  0.61490302  0.25746472  0.04957969     0.01000
C340        C  0.62504642  0.26068961  0.04064949     0.07100
C341        C  0.62756140  0.27428854  0.04276983    -0.06000
H342        H  0.61002201  0.24780430  0.05077237     0.07700
H343        H  0.63498864  0.28043265  0.03769270     0.08900
Cu344      Cu  0.59711882  0.26950508  0.07129993     0.44200
Cu345      Cu  0.61823789  0.29758914  0.06200040     0.42000
Cu346      Cu  0.58978720  0.30099996  0.08596309     0.43900
N347        N  0.58110109  0.27226330  0.08413237    -0.34700
N348        N  0.57777964  0.28413200  0.08907019    -0.28900
C349        C  0.56598300  0.28296011  0.09566994    -0.05000
C350        C  0.56193182  0.26962955  0.09502551     0.07200
C351        C  0.57171592  0.26317561  0.08758737     0.01000
H352        H  0.56059125  0.29122171  0.10026242     0.08600
H353        H  0.57157945  0.25283622  0.08419711     0.07700
N354        N  0.60483378  0.31530641  0.08312363    -0.36100
N355        N  0.61509393  0.31419859  0.07468442    -0.28300
C356        C  0.62325300  0.32492498  0.07634440    -0.03600
C357        C  0.61788570  0.33320604  0.08628109     0.05100
C358        C  0.60621562  0.32668427  0.09028865     0.03100
H359        H  0.63268442  0.32625712  0.07107545     0.08300
H360        H  0.59927384  0.32985978  0.09805093     0.07100
N361        N  0.69556225  0.46617289  0.13413844    -0.27300
N362        N  0.69847962  0.47049308  0.14634404    -0.35200
C363        C  0.70916214  0.47873710  0.14577531     0.01000
C364        C  0.71318220  0.47986041  0.13252496     0.07100
C365        C  0.70433006  0.47174075  0.12537315    -0.06000
H366        H  0.71327281  0.48407244  0.15431142     0.07700
H367        H  0.70419531  0.47011262  0.11461829     0.08900
Cu368      Cu  0.68663811  0.46672263  0.16289035     0.44200
Cu369      Cu  0.67948711  0.45300709  0.13076388     0.42000
Cu370      Cu  0.65550016  0.44900618  0.15920655     0.43900
N371        N  0.67184277  0.46662796  0.17735696    -0.34700
N372        N  0.66005795  0.46063633  0.17609459    -0.28900
C373        C  0.65247284  0.46364063  0.18696702    -0.05000
C374        C  0.65993014  0.47196775  0.19538856     0.07200
C375        C  0.67214082  0.47353983  0.18890310     0.01000
H376        H  0.64235649  0.45997979  0.18860368     0.08600
H377        H  0.68053502  0.47967694  0.19209758     0.07700
N378        N  0.65537477  0.43737485  0.14168527    -0.36100
N379        N  0.66398450  0.43874759  0.13158719    -0.28300
C380        C  0.66180939  0.42882257  0.12263439    -0.03600
C381        C  0.65131047  0.42080885  0.12720089     0.05100
C382        C  0.64751130  0.42658756  0.13933038     0.03100
H383        H  0.66772882  0.42731824  0.11361926     0.08300
H384        H  0.64008571  0.42280235  0.14634300     0.07100
N385        N  0.29210837  0.06564438  0.59661570    -0.27300
N386        N  0.28415937  0.06494520  0.58600774    -0.35200
C387        C  0.27398956  0.05646307  0.58850619     0.01000
C388        C  0.27554093  0.05143976  0.60131642     0.07100
C389        C  0.28721081  0.05733985  0.60620411    -0.06000
H390        H  0.26602162  0.05414787  0.58147906     0.07700
H391        H  0.29158959  0.05595954  0.61606277     0.08900
Cu392      Cu  0.28673086  0.07583213  0.56872927     0.44200
Cu393      Cu  0.30859864  0.07870995  0.59706501     0.42000
Cu394      Cu  0.31103186  0.10183331  0.56751885     0.43900
N395        N  0.28819102  0.08884921  0.55284673    -0.34700
N396        N  0.29688069  0.09886853  0.55226943    -0.28900
C397        C  0.29480847  0.10573058  0.54073747    -0.05000
C398        C  0.28428490  0.09963361  0.53381445     0.07200
C399        C  0.28042880  0.08895330  0.54184924     0.01000
H400        H  0.30071644  0.11429214  0.53752457     0.08600
H401        H  0.27242569  0.08182825  0.53995046     0.07700
N402        N  0.32439601  0.10148127  0.58376389    -0.36100
N403        N  0.32361504  0.09322033  0.59420594    -0.28300
C404        C  0.33405539  0.09567273  0.60247315    -0.03600
C405        C  0.34189369  0.10588761  0.59701381     0.05100
C406        C  0.33533097  0.10935266  0.58518370     0.03100
H407        H  0.33592370  0.09023070  0.61171284     0.08300
H408        H  0.33815633  0.11713539  0.57811764     0.07100
N409        N  0.48224196  0.14064922  0.67050282    -0.27300
N410        N  0.49236883  0.14889216  0.66795490    -0.35200
C411        C  0.50283607  0.14571279  0.67587253     0.01000
C412        C  0.49918690  0.13499308  0.68396432     0.07100
C413        C  0.48599340  0.13208208  0.68038205    -0.06000
H414        H  0.51236673  0.15097420  0.67588636     0.07700
H415        H  0.47971581  0.12416867  0.68445847     0.08900
Cu416      Cu  0.49131116  0.16468007  0.65443903     0.44200
Cu417      Cu  0.46421295  0.14170624  0.65956845     0.42000
Cu418      Cu  0.46040818  0.17151193  0.63718293     0.43900
N419        N  0.48832605  0.18149296  0.64255282    -0.34700
N420        N  0.47697560  0.18436073  0.63629833    -0.28900
C421        C  0.47837808  0.19631097  0.62996969    -0.05000
C422        C  0.49127635  0.20117255  0.63242623     0.07200
C423        C  0.49720049  0.19142888  0.64043172     0.01000
H424        H  0.47060004  0.20101866  0.62401094     0.08600
H425        H  0.50716639  0.19170098  0.64477568     0.07700
N426        N  0.44629594  0.15607783  0.63913819    -0.36100
N427        N  0.44780090  0.14521008  0.64673170    -0.28300
C428        C  0.43710160  0.13707638  0.64485997    -0.03600
C429        C  0.42834858  0.14319223  0.63589067     0.05100
C430        C  0.43454457  0.15520056  0.63247488     0.03100
H431        H  0.43571788  0.12745677  0.64977677     0.08300
H432        H  0.43092987  0.16263476  0.62539325     0.07100
N433        N  0.23706691  0.07027360  0.38259561    -0.27300
N434        N  0.24687885  0.07350010  0.39091322    -0.35200
C435        C  0.25734200  0.06521278  0.38908362     0.01000
C436        C  0.25412040  0.05618371  0.37906861     0.07100
C437        C  0.24108911  0.05958223  0.37521928    -0.06000
H438        H  0.26646732  0.06547381  0.39499053     0.07700
H439        H  0.23504360  0.05468027  0.36763133     0.08900
Cu440      Cu  0.24536001  0.08805173  0.40537033     0.44200
Cu441      Cu  0.21906773  0.08133287  0.38251180     0.42000
Cu442      Cu  0.21523343  0.10619692  0.41087197     0.43900
N443        N  0.24253296  0.10010776  0.42179741    -0.34700
N444        N  0.23136465  0.10678916  0.42438226    -0.28900
C445        C  0.23260763  0.11264634  0.43657706    -0.05000
C446        C  0.24525360  0.10949839  0.44175027     0.07200
C447        C  0.25109623  0.10140926  0.43207629     0.01000
H448        H  0.22478630  0.11842732  0.44146168     0.08600
H449        H  0.26055969  0.09609213  0.43274400     0.07700
N450        N  0.20182224  0.10381032  0.39478616    -0.36100
N451        N  0.20325955  0.09523078  0.38467143    -0.28300
C452        C  0.19310537  0.09714602  0.37589103    -0.03600
C453        C  0.18485162  0.10735111  0.38065392     0.05100
C454        C  0.19066864  0.11122531  0.39269886     0.03100
H455        H  0.19181625  0.09146946  0.36670839     0.08300
H456        H  0.18722703  0.11914694  0.39931681     0.07100
N457        N  0.04826647  0.14619762  0.30138076    -0.27300
N458        N  0.03895164  0.15535035  0.30375798    -0.35200
C459        C  0.02865273  0.15369902  0.29528393     0.01000
C460        C  0.03119431  0.14268861  0.28719691     0.07100
C461        C  0.04389845  0.13824080  0.29123113    -0.06000
H462        H  0.01998302  0.16025297  0.29502729     0.07700
H463        H  0.04941543  0.12975420  0.28723710     0.08900
Cu464      Cu  0.04002088  0.16992421  0.31830467     0.44200
Cu465      Cu  0.06611739  0.14611990  0.31274008     0.42000
Cu466      Cu  0.07027603  0.17690196  0.33478405     0.43900
N467        N  0.04208255  0.18634113  0.33060147    -0.34700
N468        N  0.05364138  0.18980657  0.33610327    -0.28900
C469        C  0.05205520  0.20187225  0.34215253    -0.05000
C470        C  0.03874318  0.20589407  0.34056093     0.07200
C471        C  0.03279516  0.19578992  0.33315538     0.01000
H472        H  0.05995441  0.20732503  0.34725986     0.08600
H473        H  0.02262312  0.19564010  0.32930350     0.07700
N474        N  0.08353789  0.16048197  0.33386186    -0.36100
N475        N  0.08200460  0.14958870  0.32631558    -0.28300
C476        C  0.09207935  0.14093333  0.32908368    -0.03600
C477        C  0.10034109  0.14650495  0.33887221     0.05100
C478        C  0.09461288  0.15895441  0.34152142     0.03100
H479        H  0.09329629  0.13128166  0.32422832     0.08300
H480        H  0.09803975  0.16626192  0.34880661     0.07100
N481        N  0.72798972  0.43571417  0.59270242    -0.27300
N482        N  0.73500769  0.43702087  0.58147513    -0.35200
C483        C  0.74341032  0.44752263  0.58256907     0.01000
C484        C  0.74172573  0.45319428  0.59512656     0.07100
C485        C  0.73194207  0.44536886  0.60137418    -0.06000
H486        H  0.75063372  0.45044569  0.57495330     0.07700
H487        H  0.72804445  0.44657958  0.61146758     0.08900
Cu488      Cu  0.73396228  0.42395548  0.56547052     0.44200
Cu489      Cu  0.71335242  0.42073625  0.59503134     0.42000
Cu490      Cu  0.71095432  0.39680462  0.56623432     0.43900
N491        N  0.73340142  0.40948835  0.55068590    -0.34700
N492        N  0.72494738  0.39924969  0.55068921    -0.28900
C493        C  0.72737545  0.39165040  0.53968788    -0.05000
C494        C  0.73795858  0.39743437  0.53252665     0.07200
C495        C  0.74144276  0.40871382  0.53987990     0.01000
H496        H  0.72202662  0.38249661  0.53726144     0.08600
H497        H  0.74923901  0.41594132  0.53751059     0.07700
N498        N  0.69788813  0.39729929  0.58276091    -0.36100
N499        N  0.69867370  0.40573262  0.59304102    -0.28300
C500        C  0.68835595  0.40324310  0.60152818    -0.03600
C501        C  0.68076203  0.39267067  0.59646594     0.05100
C502        C  0.68710961  0.38928618  0.58449897     0.03100
H503        H  0.68652782  0.40873103  0.61074186     0.08300
H504        H  0.68396179  0.38174854  0.57733199     0.07100
N505        N  0.54396255  0.35061493  0.67329789    -0.27300
N506        N  0.53612487  0.33990009  0.67391108    -0.35200
C507        C  0.52726886  0.34134633  0.68401662     0.01000
C508        C  0.52946346  0.35365120  0.69007826     0.07100
C509        C  0.54019216  0.35927535  0.68304363    -0.06000
H510        H  0.51960662  0.33405261  0.68661602     0.07700
H511        H  0.54507797  0.36879098  0.68498151     0.08900
Cu512      Cu  0.53748115  0.32396815  0.66074134     0.44200
Cu513      Cu  0.55941497  0.35226075  0.65906710     0.42000
Cu514      Cu  0.56111639  0.32536320  0.63327488     0.43900
N515        N  0.53919282  0.30910227  0.64641407    -0.34700
N516        N  0.54750711  0.30952118  0.63602442    -0.28900
C517        C  0.54595575  0.29812558  0.62879831    -0.05000
C518        C  0.53632418  0.29022765  0.63512735     0.07200
C519        C  0.53225194  0.29753507  0.64618209     0.01000
H520        H  0.55167126  0.29560423  0.61988181     0.08600
H521        H  0.52482245  0.29461856  0.65360158     0.07700
N522        N  0.57486475  0.34124676  0.63490912    -0.36100
N523        N  0.57436040  0.35069844  0.64427801    -0.28300
C524        C  0.58526197  0.35866120  0.64303450    -0.03600
C525        C  0.59311610  0.35402763  0.63244720     0.05100
C526        C  0.58607498  0.34305449  0.62746304     0.03100
H527        H  0.58730888  0.36719358  0.64945009     0.08300
H528        H  0.58913657  0.33653608  0.61930742     0.07100
N529        N  0.79376303  0.43578462  0.38417746    -0.27300
N530        N  0.78386644  0.43423426  0.39290043    -0.35200
C531        C  0.77485040  0.44411790  0.39130668     0.01000
C532        C  0.77909861  0.45242440  0.38096635     0.07100
C533        C  0.79119568  0.44680035  0.37662903    -0.06000
H534        H  0.76568439  0.44500303  0.39712297     0.07700
H535        H  0.79771848  0.45047575  0.36872152     0.08900
Cu536      Cu  0.78281775  0.41874686  0.40655903     0.44200
Cu537      Cu  0.80985990  0.42223137  0.38373922     0.42000
Cu538      Cu  0.80882206  0.39434142  0.40944557     0.43900
N539        N  0.78297199  0.40431960  0.42136122    -0.34700
N540        N  0.79264272  0.39537321  0.42304823    -0.28900
C541        C  0.79053371  0.38898615  0.43489871    -0.05000
C542        C  0.77906420  0.39437961  0.44088115     0.07200
C543        C  0.77450719  0.40389241  0.43184322     0.01000
H544        H  0.79735586  0.38174368  0.43930085     0.08600
H545        H  0.76613465  0.41071301  0.43319737     0.07700
N546        N  0.82364643  0.39682119  0.39450029    -0.36100
N547        N  0.82406813  0.40677714  0.38561386    -0.28300
C548        C  0.83504180  0.40524569  0.37778988    -0.03600
C549        C  0.84197335  0.39383088  0.38186256     0.05100
C550        C  0.83434036  0.38872807  0.39242368     0.03100
H551        H  0.83759514  0.41186802  0.36953312     0.08300
H552        H  0.83650005  0.37982768  0.39830984     0.07100
N553        N  0.98388682  0.35604052  0.31246954    -0.27300
N554        N  0.99423880  0.34902436  0.31695964    -0.35200
C555        C  0.00508289  0.35159067  0.30928734     0.01000
C556        C  0.00150001  0.36064343  0.29934242     0.07100
C557        C  0.98791846  0.36320129  0.30161093    -0.06000
H558        H  0.01473183  0.34670258  0.31047434     0.07700
H559        H  0.98145890  0.36970489  0.29575105     0.08900
Cu560      Cu  0.99271686  0.33446023  0.33175340     0.44200
Cu561      Cu  0.96490491  0.35463931  0.32169826     0.42000
Cu562      Cu  0.95989606  0.32399973  0.34241445     0.43900
N563        N  0.98907696  0.31628914  0.34121425    -0.34700
N564        N  0.97693215  0.31178313  0.34424102    -0.28900
C565        C  0.97794242  0.29875921  0.34799975    -0.05000
C566        C  0.99141626  0.29505466  0.34750529     0.07200
C567        C  0.99810978  0.30644056  0.34313801     0.01000
H568        H  0.96950174  0.29237843  0.35057913     0.08600
H569        H  0.00866990  0.30722677  0.34059966     0.07700
N570        N  0.94607703  0.33982893  0.34099775    -0.36100
N571        N  0.94790396  0.35086592  0.33373680    -0.28300
C572        C  0.93744168  0.35923817  0.33587243    -0.03600
C573        C  0.92860381  0.35331480  0.34497578     0.05100
C574        C  0.93442763  0.34093658  0.34786484     0.03100
H575        H  0.93651799  0.36911348  0.33138203     0.08300
H576        H  0.93054278  0.33323173  0.35450363     0.07100
N577        N  0.90448595  0.72216702  0.56256376    -0.27300
N578        N  0.91476223  0.73060205  0.56249776    -0.35200
C579        C  0.91311253  0.73966783  0.55263354     0.01000
C580        C  0.90118740  0.73693080  0.54606925     0.07100
C581        C  0.89584412  0.72584609  0.55274218    -0.06000
H582        H  0.92019091  0.74761665  0.55031992     0.07700
H583        H  0.88666389  0.72055095  0.55028978     0.08900
Cu584      Cu  0.93112373  0.72912697  0.57512165     0.44200
Cu585      Cu  0.90409369  0.70539933  0.57537304     0.42000
Cu586      Cu  0.93517287  0.69967457  0.59538065     0.43900
N587        N  0.94794023  0.72559389  0.58668636    -0.34700
N588        N  0.94987703  0.71452986  0.59380617    -0.28900
C589        C  0.96225457  0.71502208  0.59932685    -0.05000
C590        C  0.96821125  0.72706179  0.59553816     0.07200
C591        C  0.95884203  0.73348992  0.58759422     0.01000
H592        H  0.96653912  0.70726051  0.60563682     0.08600
H593        H  0.96001947  0.74305305  0.58251133     0.07700
N594        N  0.91851497  0.68692123  0.59526338    -0.36100
N595        N  0.90746834  0.68887501  0.58808428    -0.28300
C596        C  0.89900699  0.67849442  0.59024303    -0.03600
C597        C  0.90495386  0.66957845  0.59919724     0.05100
C598        C  0.91726981  0.67534528  0.60221599     0.03100
H599        H  0.88916454  0.67759723  0.58571394     0.08300
H600        H  0.92489621  0.67130244  0.60883450     0.07100
N601        N  0.82407126  0.53454065  0.63671360    -0.27300
N602        N  0.82336391  0.52636247  0.64717427    -0.35200
C603        C  0.81307774  0.51778762  0.64555690     0.01000
C604        C  0.80697893  0.52055461  0.63341857     0.07100
C605        C  0.81426649  0.53117461  0.62796301    -0.06000
H606        H  0.81062646  0.50969842  0.65243292     0.07700
H607        H  0.81265825  0.53595942  0.61831945     0.08900
Cu608      Cu  0.83713322  0.52609305  0.66256774     0.44200
Cu609      Cu  0.83877095  0.54954847  0.63550553     0.42000
Cu610      Cu  0.86443624  0.54892086  0.66327409     0.43900
N611        N  0.85163149  0.52550580  0.67727311    -0.34700
N612        N  0.86202734  0.53375142  0.67784531    -0.28900
C613        C  0.86911658  0.53088662  0.68910814    -0.05000
C614        C  0.86270726  0.52037378  0.69586697     0.07200
C615        C  0.85171071  0.51730171  0.68797418     0.01000
H616        H  0.87784757  0.53643993  0.69245745     0.08600
H617        H  0.84406176  0.50982727  0.69003695     0.07700
N618        N  0.86326707  0.56339599  0.64785464    -0.36100
N619        N  0.85417109  0.56367664  0.63811885    -0.28300
C620        C  0.85629425  0.57467388  0.63044518    -0.03600
C621        C  0.86729547  0.58165479  0.63543477     0.05100
C622        C  0.87137122  0.57418766  0.64651731     0.03100
H623        H  0.85023530  0.57739475  0.62183249     0.08300
H624        H  0.87941737  0.57660469  0.65340652     0.07100
N625        N  0.19594794  0.96559213  0.63950589    -0.27300
N626        N  0.19702327  0.97154022  0.65131376    -0.35200
C627        C  0.20630276  0.98129079  0.65060496     0.01000
C628        C  0.21144400  0.98166143  0.63767302     0.07100
C629        C  0.20460382  0.97151366  0.63087206    -0.06000
H630        H  0.20886793  0.98783117  0.65890021     0.07700
H631        H  0.20542160  0.96895357  0.62033674     0.08900
Cu632      Cu  0.18483299  0.96752979  0.66751210     0.44200
Cu633      Cu  0.18211473  0.95013550  0.63623589     0.42000
Cu634      Cu  0.15754304  0.94485646  0.66409117     0.43900
N635        N  0.17008220  0.96548220  0.68184493    -0.34700
N636        N  0.15954700  0.95750371  0.68060282    -0.28900
C637        C  0.15161795  0.95897826  0.69153105    -0.05000
C638        C  0.15760541  0.96831393  0.70001526     0.07200
C639        C  0.16927271  0.97216776  0.69349863     0.01000
H640        H  0.14241819  0.95343246  0.69329864     0.08600
H641        H  0.17661211  0.97943940  0.69690735     0.07700
N642        N  0.15936514  0.93269107  0.64716590    -0.36100
N643        N  0.16789009  0.93467125  0.63708950    -0.28300
C644        C  0.16616855  0.92483600  0.62794236    -0.03600
C645        C  0.15627549  0.91617292  0.63256863     0.05100
C646        C  0.15218068  0.92148420  0.64475006     0.03100
H647        H  0.17186886  0.92392085  0.61870751     0.08300
H648        H  0.14442693  0.91757623  0.65133287     0.07100
N649        N  0.11727623  0.78166015  0.55316272    -0.27300
N650        N  0.11010241  0.77102369  0.55666937    -0.35200
C651        C  0.11337890  0.76060965  0.54871945     0.01000
C652        C  0.12307189  0.76484309  0.53965946     0.07100
C653        C  0.12524985  0.77829686  0.54269704    -0.06000
H654        H  0.10867653  0.75080107  0.54918776     0.07700
H655        H  0.13213898  0.78510053  0.53770314     0.08900
Cu656      Cu  0.09496581  0.77156792  0.57089665     0.44200
Cu657      Cu  0.11547070  0.80002380  0.56318821     0.42000
Cu658      Cu  0.08641727  0.80350544  0.58587643     0.43900
N659        N  0.07747481  0.77495090  0.58157757    -0.34700
N660        N  0.07394020  0.78673472  0.58662184    -0.28900
C661        C  0.06143400  0.78571509  0.59177348    -0.05000
C662        C  0.05700171  0.77264404  0.58986054     0.07200
C663        C  0.06743292  0.76611476  0.58344891     0.01000
H664        H  0.05602155  0.79385464  0.59655110     0.08600
H665        H  0.06754026  0.75580117  0.57998120     0.07700
N666        N  0.10155902  0.81780893  0.58384373    -0.36100
N667        N  0.11210746  0.81647747  0.57580748    -0.28300
C668        C  0.12043524  0.82697583  0.57774204    -0.03600
C669        C  0.11484566  0.83539083  0.58734818     0.05100
C670        C  0.10287505  0.82922949  0.59098861     0.03100
H671        H  0.13001752  0.82824301  0.57272027     0.08300
H672        H  0.09593619  0.83244782  0.59873707     0.07100
N673        N  0.90557815  0.27551868  0.91815411    -0.27300
N674        N  0.91259000  0.26505159  0.91387180    -0.35200
C675        C  0.90944996  0.25417283  0.92126921     0.01000
C676        C  0.89996869  0.25781458  0.93076359     0.07100
C677        C  0.89782485  0.27148247  0.92859599    -0.06000
H678        H  0.91393868  0.24434625  0.91995047     0.07700
H679        H  0.89094851  0.27792511  0.93404209     0.08900
Cu680      Cu  0.92670676  0.26573618  0.89862247     0.44200
Cu681      Cu  0.90676778  0.29450051  0.90871785     0.42000
Cu682      Cu  0.93383741  0.29707283  0.88323193     0.43900
N683        N  0.94278332  0.26849472  0.88574798    -0.34700
N684        N  0.94600033  0.28029191  0.88054051    -0.28900
C685        C  0.95810225  0.27927383  0.87448463    -0.05000
C686        C  0.96254604  0.26611084  0.87580438     0.07200
C687        C  0.95257187  0.25961107  0.88301852     0.01000
H688        H  0.96351300  0.28759462  0.86999364     0.08600
H689        H  0.95292694  0.24946617  0.88696497     0.07700
N690        N  0.91914110  0.31161485  0.88642221    -0.36100
N691        N  0.90941505  0.31094282  0.89552194    -0.28300
C692        C  0.90131251  0.32174358  0.89392051    -0.03600
C693        C  0.90602665  0.32943231  0.88318103     0.05100
C694        C  0.91744855  0.32270947  0.87886207     0.03100
H695        H  0.89229120  0.32355409  0.89974508     0.08300
H696        H  0.92402444  0.32552367  0.87065183     0.07100
N697        N  0.82679618  0.46686660  0.84743372    -0.27300
N698        N  0.82882740  0.47720308  0.83929282    -0.35200
C699        C  0.82000990  0.48701139  0.84222013     0.01000
C700        C  0.81191974  0.48275741  0.85272617     0.07100
C701        C  0.81643637  0.46986033  0.85573324    -0.06000
H702        H  0.81938364  0.49648479  0.83688609     0.07700
H703        H  0.81259299  0.46324161  0.86348739     0.08900
Cu704      Cu  0.84294593  0.47751860  0.82396291     0.44200
Cu705      Cu  0.83870338  0.44942951  0.84649383     0.42000
Cu706      Cu  0.86343239  0.44860087  0.81836641     0.43900
N707        N  0.85587340  0.47583652  0.80769787    -0.34700
N708        N  0.86336529  0.46513877  0.80528071    -0.28900
C709        C  0.86971234  0.46689200  0.79337311    -0.05000
C710        C  0.86610671  0.47938204  0.78812607     0.07200
C711        C  0.85722951  0.48463390  0.79752643     0.01000
H712        H  0.87622470  0.45950780  0.78873874     0.08600
H713        H  0.85153391  0.49386620  0.79672888     0.07700
N714        N  0.86135210  0.43358360  0.83304658    -0.36100
N715        N  0.85251723  0.43378286  0.84304210    -0.28300
C716        C  0.85416722  0.42258119  0.85054755    -0.03600
C717        C  0.86449199  0.41489371  0.84505034     0.05100
C718        C  0.86880254  0.42229897  0.83400781     0.03100
H719        H  0.84848395  0.42040743  0.85957830     0.08300
H720        H  0.87681410  0.41966974  0.82711864     0.07100
N721        N  0.19143788  0.02674825  0.84253343    -0.27300
N722        N  0.18826010  0.01613123  0.83523774    -0.35200
C723        C  0.19784900  0.00675733  0.83650624     0.01000
C724        C  0.20768379  0.01154631  0.84506486     0.07100
C725        C  0.20326205  0.02431810  0.84876228    -0.06000
H726        H  0.19777622  0.99718874  0.83132838     0.07700
H727        H  0.20845521  0.03155011  0.85497581     0.08900
Cu728      Cu  0.17190807  0.01509879  0.82264324     0.44200
Cu729      Cu  0.17943480  0.04402219  0.84236136     0.42000
Cu730      Cu  0.15280165  0.04449755  0.81588565     0.43900
N731        N  0.15776523  0.01600863  0.80760882    -0.34700
N732        N  0.15102055  0.02699921  0.80445140    -0.28900
C733        C  0.14405190  0.02466668  0.79305325    -0.05000
C734        C  0.14644408  0.01148126  0.78903079     0.07200
C735        C  0.15525118  0.00640651  0.79850679     0.01000
H736        H  0.13810843  0.03213284  0.78782538     0.08600
H737        H  0.16031989  0.99677977  0.79825248     0.07700
N738        N  0.15597708  0.05960218  0.83012542    -0.36100
N739        N  0.16536451  0.05943379  0.83956731    -0.28300
C740        C  0.16424392  0.07069717  0.84700970    -0.03600
C741        C  0.15361428  0.07831611  0.84214405     0.05100
C742        C  0.14869509  0.07095009  0.83137540     0.03100
H743        H  0.17064258  0.07309577  0.85546298     0.08300
H744        H  0.14053476  0.07368951  0.82473982     0.07100
N745        N  0.11057151  0.21280491  0.92098157    -0.27300
N746        N  0.09834396  0.21732268  0.92345986    -0.35200
C747        C  0.09884500  0.22682930  0.93297451     0.01000
C748        C  0.11208068  0.22852155  0.93683526     0.07100
C749        C  0.11929558  0.21939753  0.92901242    -0.06000
H750        H  0.09020127  0.23247481  0.93642061     0.07700
H751        H  0.13009630  0.21814431  0.92865290     0.08900
Cu752      Cu  0.08186914  0.21245178  0.91215841     0.44200
Cu753      Cu  0.11386712  0.19864699  0.90580604     0.42000
Cu754      Cu  0.08566341  0.19461144  0.88131668     0.43900
N755        N  0.06764923  0.21268453  0.89730079    -0.34700
N756        N  0.06900423  0.20677088  0.88549213    -0.28900
C757        C  0.05843421  0.21026693  0.87771587    -0.05000
C758        C  0.05013847  0.21875613  0.88513588     0.07200
C759        C  0.05634294  0.21998565  0.89746441     0.01000
H760        H  0.05690169  0.20686971  0.86750190     0.08600
H761        H  0.05312781  0.22615758  0.90583265     0.07700
N762        N  0.10313580  0.18284594  0.88171446    -0.36100
N763        N  0.11300782  0.18417741  0.89056549    -0.28300
C764        C  0.12209858  0.17435036  0.88850677    -0.03600
C765        C  0.11784226  0.16645997  0.87786476     0.05100
C766        C  0.10583533  0.17220871  0.87375124     0.03100
H767        H  0.13109803  0.17296653  0.89444951     0.08300
H768        H  0.09927145  0.16859872  0.86587251     0.07100
N769        N  0.57940286  0.89363061  0.70596507    -0.27300
N770        N  0.57658694  0.90548518  0.71126804    -0.35200
C771        C  0.56668157  0.90409656  0.72032529     0.01000
C772        C  0.56308906  0.89070144  0.72091934     0.07100
C773        C  0.57136356  0.88428653  0.71167592    -0.06000
H774        H  0.56274114  0.91219352  0.72643674     0.07700
H775        H  0.57154085  0.87367168  0.70929156     0.08900
Cu776      Cu  0.58725835  0.92285822  0.70752273     0.44200
Cu777      Cu  0.59415178  0.89133983  0.69125974     0.42000
Cu778      Cu  0.61569712  0.92143345  0.68605757     0.43900
N779        N  0.60132581  0.93805662  0.70664605    -0.34700
N780        N  0.61233895  0.93745723  0.69922044    -0.28900
C781        C  0.61997169  0.94837778  0.70186092    -0.05000
C782        C  0.61326033  0.95621438  0.71127603     0.07200
C783        C  0.60151262  0.94932480  0.71406060     0.01000
H784        H  0.62957549  0.95052737  0.69719442     0.08600
H785        H  0.59379363  0.95213890  0.72121008     0.07700
N786        N  0.61581225  0.90426770  0.67392601    -0.36100
N787        N  0.60833861  0.89341395  0.67595281    -0.28300
C788        C  0.61095257  0.88440846  0.66618645    -0.03600
C789        C  0.62037826  0.88986723  0.65747185     0.05100
C790        C  0.62326555  0.90243980  0.66276087     0.03100
H791        H  0.60608760  0.87471066  0.66531189     0.08300
H792        H  0.63035877  0.90972665  0.65886442     0.07100
N793        N  0.66447903  0.81488730  0.52144164    -0.27300
N794        N  0.67242553  0.81870380  0.51150043    -0.35200
C795        C  0.67155403  0.80986810  0.50139739     0.01000
C796        C  0.66254890  0.79989578  0.50498409     0.07100
C797        C  0.65815622  0.80342781  0.51780594    -0.06000
H798        H  0.67730078  0.81055794  0.49216972     0.07700
H799        H  0.65134729  0.79783956  0.52421488     0.08900
Cu800      Cu  0.68551681  0.83465056  0.51243148     0.44200
Cu801      Cu  0.66419203  0.82550280  0.53948672     0.42000
Cu802      Cu  0.69287988  0.84992041  0.54352413     0.43900
N803        N  0.70212242  0.84660833  0.51513744    -0.34700
N804        N  0.70566466  0.85168570  0.52686758    -0.28900
C805        C  0.71800794  0.85724898  0.52557703    -0.05000
C806        C  0.72222980  0.85563470  0.51231339     0.07200
C807        C  0.71184931  0.84889015  0.50606739     0.01000
H808        H  0.72353604  0.86194145  0.53367467     0.08600
H809        H  0.71170828  0.84519991  0.49583394     0.07700
N810        N  0.67706957  0.84704454  0.55719387    -0.36100
N811        N  0.66696802  0.83846559  0.55572083    -0.28300
C812        C  0.65852835  0.83973256  0.56623801    -0.03600
C813        C  0.66348887  0.84950042  0.57483172     0.05100
C814        C  0.67522666  0.85395423  0.56869079     0.03100
H815        H  0.64938185  0.83396128  0.56749020     0.08300
H816        H  0.68177615  0.86194913  0.57206421     0.07100
N817        N  0.58418214  0.10177051  0.76685294    -0.27300
N818        N  0.58824759  0.09470215  0.75636452    -0.35200
C819        C  0.57922393  0.09581749  0.74642533     0.01000
C820        C  0.56875846  0.10398208  0.75065361     0.07100
C821        C  0.57229308  0.10761513  0.76374920    -0.06000
H822        H  0.58017019  0.09078954  0.73682985     0.07700
H823        H  0.56648107  0.11364634  0.77068692     0.08900
Cu824      Cu  0.60471995  0.08205978  0.75615435     0.44200
Cu825      Cu  0.59523721  0.10202144  0.78486617     0.42000
Cu826      Cu  0.62065362  0.07456819  0.78682446     0.43900
N827        N  0.61694062  0.06544450  0.75851847    -0.34700
N828        N  0.62235307  0.06210668  0.77016200    -0.28900
C829        C  0.62755890  0.04962313  0.76917553    -0.05000
C830        C  0.62529017  0.04493581  0.75622173     0.07200
C831        C  0.61862434  0.05530752  0.74976860     0.01000
H832        H  0.63211168  0.04417257  0.77741708     0.08600
H833        H  0.61431448  0.05504947  0.73978624     0.07700
N834        N  0.61760936  0.08913700  0.80148553    -0.36100
N835        N  0.60878245  0.09910594  0.80084416    -0.28300
C836        C  0.61014411  0.10677376  0.81194852    -0.03600
C837        C  0.62014461  0.10127889  0.81999720     0.05100
C838        C  0.62465613  0.09015928  0.81296830     0.03100
H839        H  0.60424418  0.11567325  0.81405189     0.08300
H840        H  0.63273661  0.08344842  0.81579955     0.07100
N841        N  0.65616527  0.17247486  0.96076627    -0.27300
N842        N  0.66292621  0.16829390  0.97138873    -0.35200
C843        C  0.66164598  0.17723970  0.98137105     0.01000
C844        C  0.65364383  0.18771492  0.97697546     0.07100
C845        C  0.65027602  0.18434319  0.96380389    -0.06000
H846        H  0.66651235  0.17631103  0.99105189     0.07700
H847        H  0.64447190  0.19029837  0.95679283     0.08900
Cu848      Cu  0.67527885  0.15175856  0.97150605     0.44200
Cu849      Cu  0.65660776  0.16152199  0.94280707     0.42000
Cu850      Cu  0.68311063  0.13458381  0.94141596     0.43900
N851        N  0.69136013  0.13891832  0.96990528    -0.34700
N852        N  0.69481259  0.13269625  0.95871634    -0.28900
C853        C  0.70681180  0.12664964  0.96065873    -0.05000
C854        C  0.71103737  0.12922080  0.97377225     0.07200
C855        C  0.70093990  0.13714448  0.97918385     0.01000
H856        H  0.71229291  0.12128667  0.95293857     0.08600
H857        H  0.70097070  0.14224166  0.98877953     0.07700
N858        N  0.66885709  0.13848034  0.92649904    -0.36100
N859        N  0.65934158  0.14781526  0.92704534    -0.28300
C860        C  0.65171669  0.14691051  0.91588770    -0.03600
C861        C  0.65673961  0.13668917  0.90785983     0.05100
C862        C  0.66756099  0.13155725  0.91494938     0.03100
H863        H  0.64317168  0.15329355  0.91373508     0.08300
H864        H  0.67387548  0.12317216  0.91207935     0.07100
N865        N  0.94702592  0.88323073  0.26478276    -0.27300
N866        N  0.94647237  0.89257498  0.25535133    -0.35200
C867        C  0.95698210  0.89119679  0.24700183     0.01000
C868        C  0.96455049  0.88040069  0.25131822     0.07100
C869        C  0.95790104  0.87544563  0.26255020    -0.06000
H870        H  0.95896790  0.89761909  0.23842855     0.07700
H871        H  0.96094174  0.86708100  0.26881865     0.08900
Cu872      Cu  0.93202106  0.90729418  0.25461242     0.44200
Cu873      Cu  0.93326711  0.88278338  0.28052878     0.42000
Cu874      Cu  0.90996110  0.91222590  0.28246877     0.43900
N875        N  0.91961224  0.92370799  0.25622009    -0.34700
N876        N  0.91162413  0.92607293  0.26658077    -0.28900
C877        C  0.90639001  0.93854801  0.26517427    -0.05000
C878        C  0.91153870  0.94422531  0.25344383     0.07200
C879        C  0.91973938  0.93441823  0.24802260     0.01000
H880        H  0.90003112  0.94343975  0.27253069     0.08600
H881        H  0.92595865  0.93525256  0.23911758     0.07700
N882        N  0.91087195  0.89636845  0.29644569    -0.36100
N883        N  0.91904293  0.88587160  0.29557488    -0.28300
C884        C  0.91702681  0.87778342  0.30625587    -0.03600
C885        C  0.90723716  0.88342987  0.31439609     0.05100
C886        C  0.90350778  0.89517033  0.30778168     0.03100
H887        H  0.92257747  0.86861284  0.30813983     0.08300
H888        H  0.89595068  0.90233502  0.31092984     0.07100
N889        N  0.87123604  0.81871392  0.45938839    -0.27300
N890        N  0.86388489  0.82353310  0.46937034    -0.35200
C891        C  0.86540323  0.81569835  0.48026434     0.01000
C892        C  0.87396577  0.80525529  0.47704261     0.07100
C893        C  0.87752757  0.80746352  0.46369374    -0.06000
H894        H  0.86003735  0.81706863  0.48964211     0.07700
H895        H  0.88402778  0.80127132  0.45753995     0.08900
Cu896      Cu  0.84984487  0.83868324  0.46725594     0.44200
Cu897      Cu  0.87123825  0.82769281  0.44034706     0.42000
Cu898      Cu  0.84071560  0.84795493  0.43390209     0.43900
N899        N  0.83191966  0.84816421  0.46280275    -0.34700
N900        N  0.82788620  0.85073145  0.45040724    -0.28900
C901        C  0.81497358  0.85494244  0.45085996    -0.05000
C902        C  0.81083030  0.85512772  0.46422779     0.07200
C903        C  0.82187814  0.85081772  0.47145271     0.01000
H904        H  0.80901439  0.85752247  0.44213708     0.08600
H905        H  0.82233057  0.84899400  0.48217466     0.07700
N906        N  0.85673720  0.84574331  0.42034536    -0.36100
N907        N  0.86785041  0.83881132  0.42278550    -0.28300
C908        C  0.87630116  0.84021466  0.41225030    -0.03600
C909        C  0.87020188  0.84824546  0.40260228     0.05100
C910        C  0.85783109  0.85159398  0.40816019     0.03100
H911        H  0.88615609  0.83563988  0.41162171     0.08300
H912        H  0.85029265  0.85813968  0.40384429     0.07100
N913        N  0.86238422  0.17697500  0.01678175    -0.27300
N914        N  0.85283808  0.17460746  0.00788437    -0.35200
C915        C  0.85396576  0.18328974  0.99758387     0.01000
C916        C  0.86485542  0.19165433  0.99989923     0.07100
C917        C  0.86992143  0.18735985  0.01227492    -0.06000
H918        H  0.84738963  0.18335396  0.98892642     0.07700
H919        H  0.87835271  0.19153336  0.01770642     0.08900
Cu920      Cu  0.83839127  0.16001178  0.01029400     0.44200
Cu921      Cu  0.86414926  0.16539952  0.03447330     0.42000
Cu922      Cu  0.83669442  0.14043561  0.04047402     0.43900
N923        N  0.82262309  0.14742341  0.01477640    -0.34700
N924        N  0.82148390  0.14024926  0.02591056    -0.28900
C925        C  0.80935568  0.13407484  0.02585468    -0.05000
C926        C  0.80264687  0.13769582  0.01410634     0.07200
C927        C  0.81144924  0.14611700  0.00741413     0.01000
H928        H  0.80553154  0.12787861  0.03395657     0.08600
H929        H  0.80974936  0.15122150  0.99794920     0.07700
N930        N  0.85368706  0.14285883  0.05271910    -0.36100
N931        N  0.86341781  0.15177838  0.05075725    -0.28300
C932        C  0.87272830  0.15022759  0.06052845    -0.03600
C933        C  0.86874578  0.13983138  0.06904182     0.05100
C934        C  0.85664082  0.13544015  0.06367382     0.03100
H935        H  0.88193847  0.15598816  0.06112670     0.08300
H936        H  0.85040018  0.12735399  0.06745933     0.07100
N937        N  0.95078887  0.09887350  0.20314389    -0.27300
N938        N  0.95118121  0.08860779  0.21156360    -0.35200
C939        C  0.96004956  0.09115422  0.22136851     0.01000
C940        C  0.96567500  0.10375311  0.21928426     0.07100
C941        C  0.95950169  0.10836890  0.20752590    -0.06000
H942        H  0.96214929  0.08424844  0.22951132     0.07700
H943        H  0.96088936  0.11803140  0.20271783     0.08900
Cu944      Cu  0.93905700  0.07183496  0.21019998     0.44200
Cu945      Cu  0.93768150  0.09869744  0.18654106     0.42000
Cu946      Cu  0.91412661  0.06923821  0.18452237     0.43900
N947        N  0.92562496  0.05605945  0.20923476    -0.34700
N948        N  0.91624345  0.05484737  0.19993429    -0.28900
C949        C  0.90929719  0.04339484  0.20234099    -0.05000
C950        C  0.91466139  0.03710617  0.21370152     0.07200
C951        C  0.92496129  0.04557406  0.21772379     0.01000
H952        H  0.90094075  0.03999095  0.19629344     0.08600
H953        H  0.93175683  0.04410199  0.22608162     0.07700
N954        N  0.91483572  0.08530986  0.17067736    -0.36100
N955        N  0.92327778  0.09562512  0.17133087    -0.28300
C956        C  0.92096073  0.10386660  0.16079026    -0.03600
C957        C  0.91049714  0.09869231  0.15313501     0.05100
C958        C  0.90694626  0.08686056  0.15974139     0.03100
H959        H  0.92640576  0.11311028  0.15892725     0.08300
H960        H  0.89931120  0.07973337  0.15671571     0.07100
N961        N  0.72371044  0.55770460  0.89488243    -0.27300
N962        N  0.72954315  0.55592508  0.90665399    -0.35200
C963        C  0.73849837  0.54589181  0.90574567     0.01000
C964        C  0.73855648  0.54104726  0.89267081     0.07100
C965        C  0.72894775  0.54882614  0.88605843    -0.06000
H966        H  0.74501233  0.54289718  0.91391360     0.07700
H967        H  0.72654535  0.54871197  0.87546171     0.08900
Cu968      Cu  0.72767923  0.56912287  0.92249009     0.44200
Cu969      Cu  0.70996664  0.57323577  0.89179440     0.42000
Cu970      Cu  0.71095411  0.60049099  0.91729139     0.43900
N971        N  0.73012068  0.58543358  0.93501158    -0.34700
N972        N  0.72453472  0.59731880  0.93303837    -0.28900
C973        C  0.72876065  0.60576416  0.94279651    -0.05000
C974        C  0.73745613  0.59876680  0.95127336     0.07200
C975        C  0.73797949  0.58592642  0.94593190     0.01000
H976        H  0.72529572  0.61600309  0.94386867     0.08600
H977        H  0.74373888  0.57748904  0.94968755     0.07700
N978        N  0.69693617  0.59914508  0.90163871    -0.36100
N979        N  0.69659145  0.58938807  0.89259298    -0.28300
C980        C  0.68598812  0.59136136  0.88442338    -0.03600
C981        C  0.67927222  0.60294932  0.88837251     0.05100
C982        C  0.68652084  0.60752254  0.89941694     0.03100
H983        H  0.68335180  0.58475745  0.87620209     0.08300
H984        H  0.68419247  0.61605244  0.90573647     0.07100
N985        N  0.54358623  0.64954651  0.81076992    -0.27300
N986        N  0.53752192  0.66133372  0.81010668    -0.35200
C987        C  0.52796083  0.66100017  0.80063255     0.01000
C988        C  0.52768864  0.64827289  0.79504321     0.07100
C989        C  0.53790796  0.64128174  0.80160731    -0.06000
H990        H  0.52148300  0.66940671  0.79825515     0.07700
H991        H  0.54063003  0.63084059  0.80019395     0.08900
Cu992      Cu  0.54098958  0.67683452  0.82328146     0.44200
Cu993      Cu  0.55872584  0.64610968  0.82500849     0.42000
Cu994      Cu  0.56277452  0.67315346  0.85128838     0.43900
N995        N  0.54203624  0.69080150  0.83844521    -0.34700
N996        N  0.54975219  0.68965864  0.84918294    -0.28900
C997        C  0.54793562  0.70068806  0.85694265    -0.05000
C998        C  0.53862059  0.70904023  0.85064350     0.07200
C999        C  0.53519760  0.70239723  0.83897126     0.01000
H1000       H  0.55342280  0.70274688  0.86609373     0.08600
H1001       H  0.52838405  0.70588069  0.83123880     0.07700
N1002       N  0.57514393  0.65612954  0.84908704    -0.36100
N1003       N  0.57374981  0.64667386  0.83979140    -0.28300
C1004       C  0.58389843  0.63776667  0.84102928    -0.03600
C1005       C  0.59219222  0.64175272  0.85151459     0.05100
C1006       C  0.58619781  0.65337553  0.85642536     0.03100
H1007       H  0.58509990  0.62901253  0.83469678     0.08300
H1008       H  0.58984918  0.65964078  0.86452528     0.07100
N1009       N  0.79237529  0.56816792  0.09898194    -0.27300
N1010       N  0.78500438  0.56728091  0.08799152    -0.35200
C1011       C  0.77638866  0.55695367  0.08920202     0.01000
C1012       C  0.77825090  0.55101252  0.10164902     0.07100
C1013       C  0.78848914  0.55842334  0.10763172    -0.06000
H1014       H  0.76917946  0.55406179  0.08159484     0.07700
H1015       H  0.79303050  0.55664188  0.11734980     0.08900
Cu1016     Cu  0.78677619  0.58037306  0.07198970     0.44200
Cu1017     Cu  0.80781546  0.58233819  0.10049009     0.42000
Cu1018     Cu  0.81286283  0.60529569  0.07095836     0.43900
N1019       N  0.78833524  0.59471024  0.05706809    -0.34700
N1020       N  0.79799015  0.60381005  0.05617973    -0.28900
C1021       C  0.79589089  0.61131341  0.04501968    -0.05000
C1022       C  0.78416711  0.60681703  0.03889057     0.07200
C1023       C  0.77979061  0.59624683  0.04678472     0.01000
H1024       H  0.80228267  0.61949159  0.04171919     0.08600
H1025       H  0.77111338  0.58991398  0.04504187     0.07700
N1026       N  0.82540671  0.60423360  0.08782407    -0.36100
N1027       N  0.82359964  0.59606915  0.09823133    -0.28300
C1028       C  0.83387208  0.59768558  0.10688775    -0.03600
C1029       C  0.84257981  0.60730171  0.10176736     0.05100
C1030       C  0.83681758  0.61130140  0.08972806     0.03100
H1031       H  0.83494164  0.59218101  0.11621807     0.08300
H1032       H  0.84084419  0.61855159  0.08266040     0.07100
N1033       N  0.98427781  0.63741745  0.17441143    -0.27300
N1034       N  0.99491864  0.64466331  0.17114872    -0.35200
C1035       C  0.00468819  0.64272669  0.18018140     0.01000
C1036       C  0.00017590  0.63370325  0.18973315     0.07100
C1037       C  0.98712151  0.63047988  0.18576248    -0.06000
H1038       H  0.01443355  0.64756288  0.17976911     0.07700
H1039       H  0.98016248  0.62381425  0.19083954     0.08900
Cu1040     Cu  0.99574313  0.65766835  0.15523311     0.44200
Cu1041     Cu  0.96682656  0.63832956  0.16264422     0.42000
Cu1042     Cu  0.96706545  0.66569561  0.13622179     0.43900
N1043       N  0.99524984  0.67379843  0.14248463    -0.34700
N1044       N  0.98455315  0.67742353  0.13555132    -0.28900
C1045       C  0.98719875  0.68931506  0.12949407    -0.05000
C1046       C  0.00021625  0.69327165  0.13292907     0.07200
C1047       C  0.00490721  0.68308298  0.14113613     0.01000
H1048       H  0.98009492  0.69474674  0.12331177     0.08600
H1049       H  0.01440176  0.68278531  0.14643109     0.07700
N1050       N  0.95181138  0.65139967  0.13909613    -0.36100
N1051       N  0.95173473  0.64173373  0.14830021    -0.28300
C1052       C  0.94041030  0.63442079  0.14686027    -0.03600
C1053       C  0.93295538  0.63960471  0.13624376     0.05100
C1054       C  0.94052914  0.65044591  0.13168314     0.03100
H1055       H  0.93786042  0.62583737  0.15306089     0.08300
H1056       H  0.93798073  0.65738618  0.12370932     0.07100
N1057       N  0.29171799  0.92849345  0.87773247    -0.27300
N1058       N  0.28174536  0.92592758  0.88615139    -0.35200
C1059       C  0.27128715  0.93396446  0.88334001     0.01000
C1060       C  0.27471009  0.94206777  0.87256536     0.07100
C1061       C  0.28781569  0.93841129  0.86930223    -0.06000
H1062       H  0.26204526  0.93423364  0.88909779     0.07700
H1063       H  0.29405245  0.94270088  0.86146515     0.08900
Cu1064     Cu  0.28297119  0.91256213  0.90192046     0.44200
Cu1065     Cu  0.31002318  0.91815785  0.87893777     0.42000
Cu1066     Cu  0.31355746  0.89536486  0.90863080     0.43900
N1067       N  0.28586789  0.90106764  0.91889152    -0.34700
N1068       N  0.29729510  0.89501703  0.92190398    -0.28900
C1069       C  0.29614560  0.88950155  0.93427337    -0.05000
C1070       C  0.28326061  0.89207196  0.93905728     0.07200
C1071       C  0.27712807  0.89949468  0.92904726     0.01000
H1072       H  0.30411218  0.88421456  0.93946028     0.08600
H1073       H  0.26723823  0.90402628  0.92938933     0.07700
N1074       N  0.32755479  0.89727102  0.89306774    -0.36100
N1075       N  0.32646082  0.90549549  0.88262284    -0.28300
C1076       C  0.33726757  0.90382043  0.87458777    -0.03600
C1077       C  0.34553948  0.89406145  0.88016891     0.05100
C1078       C  0.33899153  0.89013127  0.89184108     0.03100
H1079       H  0.33873882  0.90901405  0.86513139     0.08300
H1080       H  0.34227825  0.88255919  0.89893764     0.07100
N1081       N  0.48796563  0.85857691  0.81295490    -0.27300
N1082       N  0.49785415  0.84987823  0.81468988    -0.35200
C1083       C  0.50709761  0.85159674  0.80499442     0.01000
C1084       C  0.50295631  0.86198874  0.79676698     0.07100
C1085       C  0.49074974  0.86621103  0.80207705    -0.06000
H1086       H  0.51603277  0.84549071  0.80382116     0.07700
H1087       H  0.48406808  0.87374885  0.79797571     0.08900
Cu1088     Cu  0.49794292  0.83533319  0.82942231     0.44200
Cu1089     Cu  0.47076665  0.85831730  0.82497664     0.42000
Cu1090     Cu  0.46845381  0.83026408  0.84951921     0.43900
N1091       N  0.49622392  0.82018337  0.84343299    -0.34700
N1092       N  0.48533349  0.81786712  0.85069796    -0.28900
C1093       C  0.48720453  0.80645344  0.85781218    -0.05000
C1094       C  0.49997128  0.80149956  0.85494028     0.07200
C1095       C  0.50528996  0.81047865  0.84572301     0.01000
H1096       H  0.47969106  0.80187899  0.86424120     0.08600
H1097       H  0.51471520  0.80957827  0.84034514     0.07700
N1098       N  0.45368651  0.84488567  0.84657424    -0.36100
N1099       N  0.45453975  0.85496696  0.83789363    -0.28300
C1100       C  0.44329262  0.86246398  0.83878943    -0.03600
C1101       C  0.43496140  0.85694496  0.84855055     0.05100
C1102       C  0.44189148  0.84575102  0.85318031     0.03100
H1103       H  0.44137885  0.87137280  0.83282982     0.08300
H1104       H  0.43855703  0.83857992  0.86066543     0.07100
N1105       N  0.05349309  0.84283210  0.17635228    -0.27300
N1106       N  0.04858204  0.83084605  0.17940620    -0.35200
C1107       C  0.04030508  0.83195261  0.19003873     0.01000
C1108       C  0.03988591  0.84529219  0.19391418     0.07100
C1109       C  0.04829835  0.85194055  0.18494412    -0.06000
H1110       H  0.03436423  0.82377010  0.19409374     0.07700
H1111       H  0.05022637  0.86264503  0.18448923     0.08900
Cu1112     Cu  0.05157239  0.81378892  0.16794768     0.44200
Cu1113     Cu  0.06666545  0.84601380  0.16025995     0.42000
Cu1114     Cu  0.07127167  0.81689650  0.13798150     0.43900
N1115       N  0.05277229  0.79879201  0.15363502    -0.34700
N1116       N  0.05951298  0.79999096  0.14222632    -0.28900
C1117       C  0.05737871  0.78887871  0.13473449    -0.05000
C1118       C  0.04906475  0.78026162  0.14193738     0.07200
C1119       C  0.04633883  0.78691622  0.15382741     0.01000
H1120       H  0.06163344  0.78715072  0.12486394     0.08600
H1121       H  0.03984895  0.78352471  0.16189831     0.07700
N1122       N  0.08243940  0.83467633  0.13670017    -0.36100
N1123       N  0.08058812  0.84531493  0.14448556    -0.28300
C1124       C  0.08961637  0.85485979  0.14106447    -0.03600
C1125       C  0.09759730  0.85001543  0.13066723     0.05100
C1126       C  0.09276551  0.83715271  0.12826271     0.03100
H1127       H  0.09064443  0.86441348  0.14615937     0.08300
H1128       H  0.09656677  0.83003589  0.12096303     0.07100
N1129       N  0.22589007  0.93924926  0.08653163    -0.27300
N1130       N  0.23049683  0.94181790  0.07434176    -0.35200
C1131       C  0.23877035  0.95245487  0.07471940     0.01000
C1132       C  0.23966791  0.95698934  0.08785291     0.07100
C1133       C  0.23129489  0.94829385  0.09509821    -0.06000
H1134       H  0.24414820  0.95622286  0.06603442     0.07700
H1135       H  0.22975040  0.94807143  0.10585917     0.08900
Cu1136     Cu  0.22776785  0.92938376  0.05812041     0.44200
Cu1137     Cu  0.21305869  0.92279997  0.09016316     0.42000
Cu1138     Cu  0.21240988  0.89740949  0.06272167     0.43900
N1139       N  0.22984988  0.91397408  0.04455915    -0.34700
N1140       N  0.22485003  0.90178757  0.04631799    -0.28900
C1141       C  0.22905484  0.89390072  0.03609058    -0.05000
C1142       C  0.23702148  0.90163654  0.02755896     0.07200
C1143       C  0.23723590  0.91427465  0.03327728     0.01000
H1144       H  0.22635873  0.88343134  0.03485241     0.08600
H1145       H  0.24262613  0.92302197  0.02965247     0.07700
N1146       N  0.19954117  0.89737615  0.07940459    -0.36100
N1147       N  0.19980532  0.90629545  0.08930086    -0.28300
C1148       C  0.18959682  0.90359049  0.09786406    -0.03600
C1149       C  0.18250073  0.89251753  0.09313904     0.05100
C1150       C  0.18913467  0.88891532  0.08140280     0.03100
H1151       H  0.18712505  0.90966819  0.10653921     0.08300
H1152       H  0.18640553  0.88087197  0.07461215     0.07100
C1153       C  0.10950322  0.85658385  0.12429235    -0.19900
C1154       C  0.10981957  0.87054094  0.12149523     0.36300
C1155       C  0.12159801  0.87637117  0.11608815    -0.25900
C1156       C  0.13296936  0.86851631  0.11323378     0.02800
C1157       C  0.13252432  0.85453754  0.11559559     0.27600
C1158       C  0.12081393  0.84871957  0.12108662    -0.25000
N1159       N  0.09813195  0.87869787  0.12392682    -0.82400
H1160       H  0.12193652  0.88708484  0.11408428     0.13400
C1161       C  0.14540952  0.87503217  0.10799869     0.02700
N1162       N  0.14408569  0.84635661  0.11266432    -0.80900
H1163       H  0.12063355  0.83801652  0.12314790     0.18200
C1164       C  0.15526661  0.87939694  0.11707894    -0.25800
C1165       C  0.16742065  0.88517619  0.11252774     0.36200
C1166       C  0.16978894  0.88657145  0.09855540    -0.19800
C1167       C  0.15982261  0.88223145  0.08950726    -0.25100
C1168       C  0.14762333  0.87660646  0.09408435     0.27600
H1169       H  0.15350471  0.87815107  0.12776862     0.13400
N1170       N  0.17744680  0.88934822  0.12204556    -0.82300
H1171       H  0.16146755  0.88342548  0.07879856     0.18200
N1172       N  0.13738183  0.87269042  0.08467778    -0.80900
H1173       H  0.17409335  0.88774081  0.13189293     0.33900
H1174       H  0.18587032  0.88319847  0.12068844     0.38400
H1175       H  0.14046011  0.87474372  0.07482417     0.33800
H1176       H  0.13619875  0.86226408  0.08534979     0.30500
H1177       H  0.14221985  0.83630856  0.11517676     0.33800
H1178       H  0.14564894  0.84660285  0.10226894     0.30500
H1179       H  0.09051977  0.87531423  0.11752242     0.38400
H1180       H  0.10001340  0.88871886  0.12131813     0.33900
C1181       C  0.27746640  0.88936979  0.95252036    -0.19900
C1182       C  0.26378683  0.88576748  0.95387896     0.36300
C1183       C  0.25770290  0.88612139  0.96662010    -0.25900
C1184       C  0.26506443  0.88981141  0.97801776     0.02800
C1185       C  0.27896445  0.89241801  0.97686762     0.27600
C1186       C  0.28509242  0.89205364  0.96408389    -0.25000
N1187       N  0.25606810  0.88205288  0.94224695    -0.82400
H1188       H  0.24705137  0.88400588  0.96762534     0.13400
C1189       C  0.25770183  0.89252576  0.99067109     0.02700
N1190       N  0.28663524  0.89595954  0.98858324    -0.80900
H1191       H  0.29560703  0.89474135  0.96304689     0.18200
C1192       C  0.25811909  0.88326884  0.00131861    -0.25800
C1193       C  0.25118281  0.88580996  0.01343701     0.36200
C1194       C  0.24375976  0.89784861  0.01481983    -0.19800
C1195       C  0.24333679  0.90701215  0.00407451    -0.25100
C1196       C  0.25018320  0.90445647  0.99200848     0.27600
H1197       H  0.26393171  0.87411960  0.00018055     0.13400
N1198       N  0.25194241  0.87641760  0.02440877    -0.82300
H1199       H  0.23762790  0.91624078  0.00511246     0.18200
N1200       N  0.24956798  0.91392963  0.98107600    -0.80900
H1201       H  0.25699284  0.88116691  0.03230282     0.33900
H1202       H  0.25775292  0.86807364  0.02171685     0.38400
H1203       H  0.24347380  0.92211924  0.98361018     0.33800
H1204       H  0.25926051  0.91774263  0.97957921     0.30500
H1205       H  0.29672447  0.89752051  0.98602891     0.33800
H1206       H  0.28298041  0.90515595  0.99214194     0.30500
H1207       H  0.26025332  0.87321821  0.93837061     0.38400
H1208       H  0.24615994  0.87975870  0.94495663     0.33900
C1209       C  0.35822551  0.88836297  0.87460040    -0.19900
C1210       C  0.36780430  0.89646304  0.86786952     0.36300
C1211       C  0.37969542  0.89057644  0.86290209    -0.25900
C1212       C  0.38230860  0.87679837  0.86458914     0.02800
C1213       C  0.37268735  0.86867059  0.87117998     0.27600
C1214       C  0.36082091  0.87455147  0.87619934    -0.25000
N1215       N  0.36567739  0.91070057  0.86650072    -0.82400
H1216       H  0.38718407  0.89685296  0.85804390     0.13400
C1217       C  0.39552536  0.87124964  0.86015646     0.02700
N1218       N  0.37499589  0.85447104  0.87270286    -0.80900
H1219       H  0.35346601  0.86826678  0.88124161     0.18200
C1220       C  0.40391669  0.86510372  0.86968615    -0.25800
C1221       C  0.41683722  0.86048070  0.86621471     0.36200
C1222       C  0.42145003  0.86184838  0.85281139    -0.19800
C1223       C  0.41303539  0.86803370  0.84327929    -0.25100
C1224       C  0.40010696  0.87266002  0.84678262     0.27600
H1225       H  0.40049950  0.86426896  0.88001059     0.13400
N1226       N  0.42541412  0.85483254  0.87638105    -0.82300
H1227       H  0.41646203  0.86906238  0.83298058     0.18200
N1228       N  0.39156775  0.87868997  0.83680046    -0.80900
H1229       H  0.42046085  0.85445581  0.88566179     0.33900
H1230       H  0.43359006  0.86133933  0.87757973     0.38400
H1231       H  0.39644159  0.87904503  0.82747740     0.33800
H1232       H  0.38319466  0.87243705  0.83561436     0.30500
H1233       H  0.36699332  0.84993267  0.87782589     0.33800
H1234       H  0.37521212  0.85024884  0.86307807     0.30500
H1235       H  0.36573426  0.91485083  0.87615879     0.38400
H1236       H  0.37363544  0.91517014  0.86124848     0.33900
C1237       C  0.00760105  0.70600536  0.13010055    -0.19900
C1238       C  0.00108484  0.71862182  0.12917972     0.36300
C1239       C  0.00887541  0.73045968  0.12852441    -0.25900
C1240       C  0.02297276  0.72996265  0.12912778     0.02800
C1241       C  0.02947712  0.71738214  0.12935600     0.27600
C1242       C  0.02174690  0.70557010  0.12974534    -0.25000
N1243       N  0.98666916  0.71949583  0.12974126    -0.82400
H1244       H  0.00392140  0.74016932  0.12846631     0.13400
C1245       C  0.03066671  0.74256636  0.13145133     0.02700
N1246       N  0.04392269  0.71669937  0.12964337    -0.80900
H1247       H  0.02684057  0.69594762  0.13019222     0.18200
C1248       C  0.03766990  0.74393550  0.14360523    -0.25800
C1249       C  0.04417837  0.75599757  0.14694922     0.36200
C1250       C  0.04370312  0.76695948  0.13793785    -0.19800
C1251       C  0.03716178  0.76545843  0.12551677    -0.25100
C1252       C  0.03051029  0.75336553  0.12222743     0.27600
H1253       H  0.03774951  0.73563477  0.15068630     0.13400
N1254       N  0.05119855  0.75720465  0.15952135    -0.82300
H1255       H  0.03680019  0.77390101  0.11862063     0.18200
N1256       N  0.02342192  0.75206839  0.10971283    -0.80900
H1257       H  0.05050914  0.74826877  0.16504331     0.33900
H1258       H  0.06139156  0.75861984  0.15732419     0.38400
H1259       H  0.02418255  0.76094660  0.10410875     0.33800
H1260       H  0.02820533  0.74455547  0.10412106     0.30500
H1261       H  0.04715890  0.70669692  0.13000718     0.33800
H1262       H  0.04748498  0.72071246  0.12058615     0.30500
H1263       H  0.98365810  0.71637252  0.13933287     0.38400
H1264       H  0.98352051  0.72948242  0.12873220     0.33900
C1265       C  0.85552678  0.61198387  0.10758335    -0.19900
C1266       C  0.86479105  0.60288919  0.11337804     0.36300
C1267       C  0.87701694  0.60775260  0.11859891    -0.25900
C1268       C  0.88024508  0.62149269  0.11809416     0.02800
C1269       C  0.87092555  0.63060200  0.11244705     0.27600
C1270       C  0.85873804  0.62573691  0.10712786    -0.25000
N1271       N  0.86197803  0.58870248  0.11353338    -0.82400
H1272       H  0.88424760  0.60074419  0.12276523     0.13400
C1273       C  0.89367677  0.62610397  0.12292266     0.02700
N1274       N  0.87386536  0.64476308  0.11220739    -0.80900
H1275       H  0.85161950  0.63273562  0.10275737     0.18200
C1276       C  0.90239870  0.63257755  0.11389410    -0.25800
C1277       C  0.91532263  0.63680019  0.11783938     0.36200
C1278       C  0.91957707  0.63480735  0.13129378    -0.19800
C1279       C  0.91085342  0.62812658  0.14026234    -0.25100
C1280       C  0.89799039  0.62376271  0.13622965     0.27600
H1281       H  0.89918875  0.63407550  0.10358918     0.13400
N1282       N  0.92421120  0.64274151  0.10808546    -0.82300
H1283       H  0.91394718  0.62651761  0.15057330     0.18200
N1284       N  0.88922846  0.61709890  0.14563686    -0.80900
H1285       H  0.91948583  0.64359528  0.09873555     0.33900
H1286       H  0.93230870  0.63616102  0.10676076     0.38400
H1287       H  0.89391893  0.61605929  0.15498467     0.33800
H1288       H  0.88085962  0.62329142  0.14713270     0.30500
H1289       H  0.86600609  0.65010395  0.10770796     0.33800
H1290       H  0.87440302  0.64804576  0.12217978     0.30500
H1291       H  0.86166659  0.58543267  0.10354655     0.38400
H1292       H  0.86978957  0.58341089  0.11817190     0.33900
C1293       C  0.53429848  0.72289594  0.85407822    -0.19900
C1294       C  0.52826677  0.72615992  0.86652832     0.36300
C1295       C  0.52273699  0.73910828  0.86839631    -0.25900
C1296       C  0.52334240  0.74881061  0.85813631     0.02800
C1297       C  0.52963078  0.74561661  0.84583463     0.27600
C1298       C  0.53499473  0.73271050  0.84393617    -0.25000
N1299       N  0.52718672  0.71618067  0.87694034    -0.82400
H1300       H  0.51785780  0.74163218  0.87781511     0.13400
C1301       C  0.51711692  0.76224330  0.86002188     0.02700
N1302       N  0.53030774  0.75544559  0.83521995    -0.80900
H1303       H  0.53956799  0.73019497  0.83435934     0.18200
C1304       C  0.52543153  0.77362241  0.86025282    -0.25800
C1305       C  0.51997309  0.78663989  0.85964442     0.36200
C1306       C  0.50588733  0.78828508  0.85858566    -0.19800
C1307       C  0.49753093  0.77691698  0.85944267    -0.25100
C1308       C  0.50302286  0.76387375  0.86002326     0.27600
H1309       H  0.53625118  0.77229605  0.86042478     0.13400
N1310       N  0.52869350  0.79818078  0.85983120    -0.82300
H1311       H  0.48672815  0.77813161  0.85873199     0.18200
N1312       N  0.49437898  0.75227795  0.85995728    -0.80900
H1313       H  0.53876129  0.79522437  0.86054080     0.33900
H1314       H  0.52651371  0.80363160  0.86855360     0.38400
H1315       H  0.48427674  0.75520527  0.86000222     0.33800
H1316       H  0.49599396  0.74716412  0.85091340     0.30500
H1317       H  0.53534624  0.75154141  0.82684986     0.33800
H1318       H  0.52046534  0.75748158  0.83213640     0.30500
H1319       H  0.53690560  0.71413668  0.88035987     0.38400
H1320       H  0.52189971  0.72002509  0.88518541     0.33900
C1321       C  0.74412351  0.60305401  0.96398080    -0.19900
C1322       C  0.75010105  0.61587074  0.96574201     0.36300
C1323       C  0.75716358  0.61868793  0.97773784    -0.25900
C1324       C  0.75822616  0.60902101  0.98797146     0.02800
C1325       C  0.75236058  0.59625041  0.98617120     0.27600
C1326       C  0.74533249  0.59345501  0.97429902    -0.25000
N1327       N  0.74942076  0.62580341  0.95526345    -0.82400
H1328       H  0.76173243  0.62847648  0.97918444     0.13400
C1329       C  0.76514395  0.61214937  0.00081228     0.02700
N1330       N  0.75366063  0.58611786  0.99643645    -0.80900
H1331       H  0.74079020  0.58362444  0.97309122     0.18200
C1332       C  0.75744699  0.61234442  0.01262498    -0.25800
C1333       C  0.76359882  0.61192324  0.02529868     0.36200
C1334       C  0.77775160  0.61117473  0.02616896    -0.19800
C1335       C  0.78550487  0.61248191  0.01441541    -0.25100
C1336       C  0.77929851  0.61287266  0.00166273     0.27600
H1337       H  0.74657168  0.61204976  0.01191129     0.13400
N1338       N  0.75552521  0.61172868  0.03731275    -0.82300
H1339       H  0.79637381  0.61210230  0.01510657     0.18200
N1340       N  0.78728901  0.61326782  0.98960654    -0.80900
H1341       H  0.74529490  0.61220717  0.03493431     0.33900
H1342       H  0.75775613  0.62044696  0.04274308     0.38400
H1343       H  0.79751563  0.61383532  0.99198019     0.33800
H1344       H  0.78588401  0.60416426  0.98454269     0.30500
H1345       H  0.74870760  0.57728136  0.99361868     0.33800
H1346       H  0.76386702  0.58370834  0.99723515     0.30500
H1347       H  0.73963941  0.62962887  0.95527078     0.38400
H1348       H  0.75566292  0.63395978  0.95752319     0.33900
C1349       C  0.66668593  0.60864382  0.88240408    -0.19900
C1350       C  0.66349595  0.62250423  0.88322530     0.36300
C1351       C  0.65123447  0.62721213  0.87793731    -0.25900
C1352       C  0.64212061  0.61850469  0.87160491     0.02800
C1353       C  0.64547393  0.60477490  0.87031345     0.27600
C1354       C  0.65767211  0.60000357  0.87572583    -0.25000
N1355       N  0.67278449  0.63184598  0.88914967    -0.82400
H1356       H  0.64879445  0.63781380  0.87863975     0.13400
C1357       C  0.62907724  0.62397791  0.86654512     0.02700
N1358       N  0.63638587  0.59568695  0.86370704    -0.80900
H1359       H  0.65996833  0.58938631  0.87497402     0.18200
C1360       C  0.62581591  0.62290129  0.85285641    -0.25800
C1361       C  0.61388519  0.62855864  0.84766599     0.36200
C1362       C  0.60487699  0.63532559  0.85640955    -0.19800
C1363       C  0.60815485  0.63627384  0.87012587    -0.25100
C1364       C  0.62007463  0.63063483  0.87527866     0.27600
H1365       H  0.63280641  0.61793219  0.84612421     0.13400
N1366       N  0.61117286  0.62782198  0.83349355    -0.82300
H1367       H  0.60129831  0.64132622  0.87692475     0.18200
N1368       N  0.62306194  0.63158136  0.88939067    -0.80900
H1369       H  0.61871825  0.62243034  0.82852479     0.33900
H1370       H  0.61149819  0.63762491  0.82967727     0.38400
H1371       H  0.61548084  0.63683182  0.89445295     0.33800
H1372       H  0.62308756  0.62181405  0.89331071     0.30500
H1373       H  0.64036765  0.58595355  0.86349884     0.33800
H1374       H  0.62758401  0.59522033  0.86946195     0.30500
H1375       H  0.68139417  0.63203660  0.88309463     0.38400
H1376       H  0.66885060  0.64160118  0.88906472     0.33900
C1377       C  0.87597205  0.13395659  0.08089116    -0.19900
C1378       C  0.88351760  0.14191646  0.08995638     0.36300
C1379       C  0.88972355  0.13581129  0.10120507    -0.25900
C1380       C  0.88853815  0.12192343  0.10368774     0.02800
C1381       C  0.88129142  0.11394896  0.09445280     0.27600
C1382       C  0.87501681  0.12003916  0.08329260    -0.25000
N1383       N  0.88450692  0.15621124  0.08800171    -0.82400
H1384       H  0.89519523  0.14198677  0.10830831     0.13400
C1385       C  0.89437433  0.11592820  0.11626138     0.02700
N1386       N  0.88039583  0.09964389  0.09641152    -0.80900
H1387       H  0.86944697  0.11381038  0.07631820     0.18200
C1388       C  0.88590262  0.10903651  0.12527025    -0.25800
C1389       C  0.89084470  0.10339350  0.13732473     0.36200
C1390       C  0.90467170  0.10455907  0.14051274    -0.19800
C1391       C  0.91312074  0.11156314  0.13152937    -0.25100
C1392       C  0.90816781  0.11713122  0.11942961     0.27600
H1393       H  0.87527988  0.10825638  0.12297576     0.13400
N1394       N  0.88175899  0.09681515  0.14647256    -0.82300
H1395       H  0.92372973  0.11246692  0.13381936     0.18200
N1396       N  0.91714093  0.12382020  0.11024738    -0.80900
H1397       H  0.87198771  0.09672480  0.14259878     0.33900
H1398       H  0.88142503  0.10253900  0.15528273     0.38400
H1399       H  0.92694643  0.12387468  0.11403310     0.33800
H1400       H  0.91738908  0.11818954  0.10137407     0.30500
H1401       H  0.87469466  0.09520961  0.08878199     0.33800
H1402       H  0.89011782  0.09571823  0.09556699     0.30500
H1403       H  0.87485477  0.16023972  0.08911803     0.38400
H1404       H  0.89045487  0.16056774  0.09548694     0.33900
C1405       C  0.97697004  0.87534312  0.24496827    -0.19900
C1406       C  0.98740307  0.88422719  0.24124203     0.36300
C1407       C  0.99845773  0.87930007  0.23395944    -0.25900
C1408       C  0.99910906  0.86576499  0.23000589     0.02800
C1409       C  0.98877346  0.85682379  0.23400585     0.27600
C1410       C  0.97793486  0.86167753  0.24169656    -0.25000
N1411       N  0.98668337  0.89822331  0.24481370    -0.82400
H1412       H  0.00650382  0.88609788  0.23112176     0.13400
C1413       C  0.01033981  0.86124177  0.22119225     0.02700
N1414       N  0.98906365  0.84298535  0.22982056    -0.80900
H1415       H  0.96984479  0.85492652  0.24452815     0.18200
C1416       C  0.01806597  0.85003903  0.22495220    -0.25800
C1417       C  0.02808406  0.84488867  0.21639618     0.36200
C1418       C  0.03059661  0.85124181  0.20392804    -0.19800
C1419       C  0.02337061  0.86285472  0.20048593    -0.25100
C1420       C  0.01310339  0.86779097  0.20886303     0.27600
H1421       H  0.01613392  0.84518895  0.23453105     0.13400
N1422       N  0.03568936  0.83322586  0.22030117    -0.82300
H1423       H  0.02524487  0.86767599  0.19088276     0.18200
N1424       N  0.00515400  0.87912648  0.20466775    -0.80900
H1425       H  0.03252931  0.82970804  0.22970791     0.33900
H1426       H  0.04571634  0.83620332  0.22138431     0.38400
H1427       H  0.00849354  0.88278559  0.19537842     0.33800
H1428       H  0.99530388  0.87573739  0.20322434     0.30500
H1429       H  0.98072840  0.83778360  0.23360342     0.33800
H1430       H  0.98822654  0.84282671  0.21933959     0.30500
H1431       H  0.98699139  0.89883425  0.25530623     0.38400
H1432       H  0.99510529  0.90341492  0.24121397     0.33900
C1433       C  0.91045782  0.95834397  0.24868202    -0.19900
C1434       C  0.92206391  0.96555979  0.24468081     0.36300
C1435       C  0.92073978  0.97866494  0.23959961    -0.25900
C1436       C  0.90812128  0.98479645  0.23846828     0.02800
C1437       C  0.89651385  0.97775382  0.24261991     0.27600
C1438       C  0.89780041  0.96456806  0.24776761    -0.25000
N1439       N  0.93519675  0.95963834  0.24597379    -0.82400
H1440       H  0.92962274  0.98417932  0.23647060     0.13400
C1441       C  0.90753667  0.99862066  0.23283427     0.02700
N1442       N  0.88352690  0.98399153  0.24152843    -0.80900
H1443       H  0.88891022  0.95904242  0.25083746     0.18200
C1444       C  0.90386345  0.00048134  0.21935827    -0.25800
C1445       C  0.90575976  0.01297827  0.21287353     0.36200
C1446       C  0.91105751  0.02398819  0.22019595    -0.19800
C1447       C  0.91399936  0.02217333  0.23394372    -0.25100
C1448       C  0.91245067  0.00960098  0.24026336     0.27600
H1449       H  0.90028162  0.99191484  0.21366204     0.13400
N1450       N  0.90303924  0.01421928  0.19874320    -0.82300
H1451       H  0.91785637  0.03052312  0.23975841     0.18200
N1452       N  0.91630353  0.00777531  0.25408017    -0.80900
H1453       H  0.89905294  0.00526416  0.19494254     0.33900
H1454       H  0.91224501  0.01569688  0.19385324     0.38400
H1455       H  0.91993388  0.01677816  0.25811466     0.33800
H1456       H  0.90763482  0.00529477  0.25951611     0.30500
H1457       H  0.87601188  0.97744031  0.24491154     0.33800
H1458       H  0.88342224  0.99227633  0.24799711     0.30500
H1459       H  0.93701014  0.95817123  0.25622702     0.38400
H1460       H  0.94263139  0.96623135  0.24249473     0.33900
C1461       C  0.90222771  0.87807243  0.32748325    -0.19900
C1462       C  0.89881849  0.88668520  0.33828078     0.36300
C1463       C  0.89401797  0.88114443  0.35041720    -0.25900
C1464       C  0.89273268  0.86720479  0.35207646     0.02800
C1465       C  0.89640042  0.85855585  0.34147602     0.27600
C1466       C  0.90111217  0.86406865  0.32928280    -0.25000
N1467       N  0.90052424  0.90099103  0.33703085    -0.82400
H1468       H  0.89128498  0.88771778  0.35866901     0.13400
C1469       C  0.88723474  0.86186037  0.36491056     0.02700
N1470       N  0.89519601  0.84423414  0.34311640    -0.80900
H1471       H  0.90377028  0.85740071  0.32108837     0.18200
C1472       C  0.87351417  0.85876455  0.36576264    -0.25800
C1473       C  0.86776328  0.85412374  0.37786703     0.36200
C1474       C  0.87591624  0.85267469  0.38943524    -0.19800
C1475       C  0.88974308  0.85555911  0.38844434    -0.25100
C1476       C  0.89547192  0.86016161  0.37629924     0.27600
H1477       H  0.86727137  0.86000398  0.35692279     0.13400
N1478       N  0.85373408  0.85065925  0.37835533    -0.82300
H1479       H  0.89605943  0.85445788  0.39724304     0.18200
N1480       N  0.90956997  0.86329173  0.37550684    -0.80900
H1481       H  0.84917755  0.85236905  0.36903791     0.33900
H1482       H  0.85307748  0.84031699  0.38017933     0.38400
H1483       H  0.91421396  0.86164041  0.38479037     0.33800
H1484       H  0.91396557  0.85656900  0.36871971     0.30500
H1485       H  0.89818600  0.83927073  0.33434025     0.33800
H1486       H  0.90191679  0.84130270  0.35064542     0.30500
H1487       H  0.91081600  0.90287858  0.33592636     0.38400
H1488       H  0.89749554  0.90586654  0.34584287     0.33900
C1489       C  0.72438033  0.12649651  0.98002550    -0.19900
C1490       C  0.72599013  0.12631947  0.99418780     0.36300
C1491       C  0.73897507  0.12644706  0.99971320    -0.25900
C1492       C  0.75036329  0.12625242  0.99145831     0.02800
C1493       C  0.74884633  0.12487911  0.97741930     0.27600
C1494       C  0.73584385  0.12513516  0.97182064    -0.25000
N1495       N  0.71446677  0.12615562  0.00293932    -0.82400
H1496       H  0.74024590  0.12714718  0.01051535     0.13400
C1497       C  0.76361889  0.12905688  0.99760127     0.02700
N1498       N  0.76046817  0.12318366  0.96893882    -0.80900
H1499       H  0.73474591  0.12485807  0.96099473     0.18200
C1500       C  0.77039291  0.11901272  0.00486186    -0.25800
C1501       C  0.78293909  0.12164649  0.01094845     0.36200
C1502       C  0.78878239  0.13453660  0.00954933    -0.19800
C1503       C  0.78158063  0.14468515  0.00284536    -0.25100
C1504       C  0.76900098  0.14215244  0.99705079     0.27600
H1505       H  0.76591687  0.10910352  0.00568151     0.13400
N1506       N  0.78980241  0.11126036  0.01828950    -0.82300
H1507       H  0.78577024  0.15472779  0.00217942     0.18200
N1508       N  0.76142203  0.15295750  0.99108968    -0.80900
H1509       H  0.79861942  0.10894473  0.01303491     0.33900
H1510       H  0.78402918  0.10246720  0.01853166     0.38400
H1511       H  0.76655073  0.16208742  0.99208008     0.33800
H1512       H  0.76062192  0.15116003  0.98078298     0.30500
H1513       H  0.75757372  0.12206231  0.95889688     0.33800
H1514       H  0.76627405  0.13192190  0.96938383     0.30500
H1515       H  0.70935926  0.11711297  0.00128796     0.38400
H1516       H  0.71741738  0.12612887  0.01302919     0.33900
C1517       C  0.62533323  0.10648014  0.83300907    -0.19900
C1518       C  0.62896059  0.09772620  0.84364276     0.36300
C1519       C  0.63396754  0.10312841  0.85572039    -0.25900
C1520       C  0.63549211  0.11704009  0.85735471     0.02800
C1521       C  0.63213850  0.12577769  0.84671088     0.27600
C1522       C  0.62692747  0.12042106  0.83469979    -0.25000
N1523       N  0.62735794  0.08342176  0.84224571    -0.82400
H1524       H  0.63666209  0.09648183  0.86393503     0.13400
C1525       C  0.64077937  0.12230442  0.87024420     0.02700
N1526       N  0.63438092  0.14000547  0.84802700    -0.80900
H1527       H  0.62437653  0.12713845  0.82650210     0.18200
C1528       C  0.65470564  0.12357016  0.87193776    -0.25800
C1529       C  0.66013720  0.12843396  0.88405428     0.36200
C1530       C  0.65142661  0.13196781  0.89473550    -0.19800
C1531       C  0.63745588  0.13082696  0.89293772    -0.25100
C1532       C  0.63204233  0.12594988  0.88080805     0.27600
H1533       H  0.66133924  0.12081172  0.86373030     0.13400
N1534       N  0.67443621  0.13005044  0.88544327    -0.82300
H1535       H  0.63076126  0.13348836  0.90112445     0.18200
N1536       N  0.61774844  0.12437879  0.87927220    -0.80900
H1537       H  0.67940155  0.12697391  0.87669186     0.33900
H1538       H  0.67637602  0.14033277  0.88651961     0.38400
H1539       H  0.61274283  0.12727199  0.88806304     0.33800
H1540       H  0.61458288  0.13097571  0.87172488     0.30500
H1541       H  0.63170062  0.14500885  0.83917171     0.33800
H1542       H  0.62797998  0.14359648  0.85555532     0.30500
H1543       H  0.61706850  0.08144795  0.84134451     0.38400
H1544       H  0.63061348  0.07843694  0.85091703     0.33900
C1545       C  0.73531603  0.85892349  0.50591880    -0.19900
C1546       C  0.74764557  0.85568886  0.51206824     0.36300
C1547       C  0.75969557  0.85704765  0.50476977    -0.25900
C1548       C  0.75969991  0.86165375  0.49138702     0.02800
C1549       C  0.74741507  0.86551128  0.48543356     0.27600
C1550       C  0.73535587  0.86397790  0.49271109    -0.25000
N1551       N  0.74793014  0.85027941  0.52541949    -0.82400
H1552       H  0.76905437  0.85395599  0.50941177     0.13400
C1553       C  0.77249797  0.86144567  0.48353006     0.02700
N1554       N  0.74723047  0.87081360  0.47197724    -0.80900
H1555       H  0.72588528  0.86654300  0.48797639     0.18200
C1556       C  0.77326194  0.85378420  0.47167175    -0.25800
C1557       C  0.78556573  0.85198236  0.46484265     0.36200
C1558       C  0.79734129  0.85802467  0.46996208    -0.19800
C1559       C  0.79647484  0.86604470  0.48155141    -0.25100
C1560       C  0.78416464  0.86794585  0.48829130     0.27600
H1561       H  0.76433161  0.84869227  0.46806789     0.13400
N1562       N  0.78623981  0.84351938  0.45314754    -0.82300
H1563       H  0.80550529  0.87073648  0.48544047     0.18200
N1564       N  0.78347060  0.87633117  0.50004078    -0.80900
H1565       H  0.79208584  0.83513011  0.45561362     0.33900
H1566       H  0.77668861  0.83988075  0.45068152     0.38400
H1567       H  0.79292861  0.88035239  0.50225894     0.33800
H1568       H  0.77720305  0.88446604  0.49776809     0.30500
H1569       H  0.73739527  0.87311125  0.46905830     0.33800
H1570       H  0.75254153  0.87989486  0.47205766     0.30500
H1571       H  0.75401496  0.85650395  0.53130417     0.38400
H1572       H  0.75242553  0.84077844  0.52501748     0.33900
C1573       C  0.55293486  0.88493645  0.73015092    -0.19900
C1574       C  0.55561952  0.87348694  0.73809565     0.36300
C1575       C  0.54627510  0.86958354  0.74800581    -0.25900
C1576       C  0.53421131  0.87672933  0.74993927     0.02800
C1577       C  0.53125278  0.88772992  0.74146235     0.27600
C1578       C  0.54074197  0.89184174  0.73183092    -0.25000
N1579       N  0.56801122  0.86620924  0.73647549    -0.82400
H1580       H  0.54863518  0.86120849  0.75457390     0.13400
C1581       C  0.52516106  0.87303066  0.76131781     0.02700
N1582       N  0.51865220  0.89471719  0.74271900    -0.80900
H1583       H  0.53864317  0.90054829  0.72560523     0.18200
C1584       C  0.52116671  0.88299136  0.77054000    -0.25800
C1585       C  0.51323470  0.87979618  0.78183306     0.36200
C1586       C  0.50966869  0.86627391  0.78420243    -0.19800
C1587       C  0.51351528  0.85635171  0.77493700    -0.25100
C1588       C  0.52097994  0.85961737  0.76338227     0.27600
H1589       H  0.52449396  0.89327055  0.76907322     0.13400
N1590       N  0.50942411  0.89010012  0.79122745    -0.82300
H1591       H  0.51065256  0.84598150  0.77674192     0.18200
N1592       N  0.52435524  0.84937317  0.75375561    -0.80900
H1593       H  0.51353726  0.89936503  0.78838949     0.33900
H1594       H  0.49899694  0.89124090  0.79062042     0.38400
H1595       H  0.52055753  0.84003794  0.75679448     0.33800
H1596       H  0.51954337  0.85180580  0.74473227     0.30500
H1597       H  0.51807509  0.90260063  0.73576948     0.33800
H1598       H  0.51100873  0.88793375  0.74024744     0.30500
H1599       H  0.57586330  0.87260459  0.73929773     0.38400
H1600       H  0.56833318  0.85796330  0.74300979     0.33900
C1601       C  0.61739581  0.96920348  0.71725710    -0.19900
C1602       C  0.60838261  0.98016419  0.71749934     0.36300
C1603       C  0.61201732  0.99202216  0.72421355    -0.25900
C1604       C  0.62443238  0.99315263  0.73074139     0.02800
C1605       C  0.63357653  0.98232504  0.73038140     0.27600
C1606       C  0.63000292  0.97043070  0.72351521    -0.25000
N1607       N  0.59557104  0.97920713  0.71088102    -0.82400
H1608       H  0.60508214  0.00043266  0.72447693     0.13400
C1609       C  0.62736031  0.00584056  0.73796316     0.02700
N1610       N  0.64626699  0.98336916  0.73719482    -0.80900
H1611       H  0.63686603  0.96196451  0.72339295     0.18200
C1612       C  0.62386315  0.00694822  0.75158543    -0.25800
C1613       C  0.62367890  0.01955598  0.75804233     0.36200
C1614       C  0.62726007  0.03121917  0.75069777    -0.19800
C1615       C  0.63141557  0.02992889  0.73725091    -0.25100
C1616       C  0.63152631  0.01734748  0.73082152     0.27600
H1617       H  0.62049310  0.99806076  0.75694661     0.13400
N1618       N  0.61907321  0.02061454  0.77171490    -0.82300
H1619       H  0.63418766  0.03885579  0.73162005     0.18200
N1620       N  0.63526413  0.01625686  0.71689348    -0.80900
H1621       H  0.61690364  0.01109771  0.77565625     0.33900
H1622       H  0.61000177  0.02593698  0.77162307     0.38400
H1623       H  0.63787518  0.02568561  0.71300845     0.33800
H1624       H  0.64391997  0.01030718  0.71638299     0.30500
H1625       H  0.65175837  0.97446460  0.73610836     0.33800
H1626       H  0.65183189  0.99093561  0.73244111     0.30500
H1627       H  0.59740953  0.97816088  0.70057691     0.38400
H1628       H  0.59009893  0.98811088  0.71206926     0.33900
C1629       C  0.62611044  0.88352680  0.64520362    -0.19900
C1630       C  0.62897340  0.89112682  0.63350412     0.36300
C1631       C  0.63476515  0.88474808  0.62228355    -0.25900
C1632       C  0.63762037  0.87095623  0.62245719     0.02800
C1633       C  0.63460795  0.86328483  0.63399351     0.27600
C1634       C  0.62880491  0.86963761  0.64524087    -0.25000
N1635       N  0.62577659  0.90521808  0.63294210    -0.82400
H1636       H  0.63706972  0.89054078  0.61332633     0.13400
C1637       C  0.64410286  0.86481777  0.61054095     0.02700
N1638       N  0.63776366  0.84917293  0.63434278    -0.80900
H1639       H  0.62664474  0.86377603  0.65418281     0.18200
C1640       C  0.65816223  0.86464188  0.60971191    -0.25800
C1641       C  0.66475911  0.85946222  0.59830762     0.36200
C1642       C  0.65707247  0.85456523  0.58738897    -0.19800
C1643       C  0.64294892  0.85457681  0.58840152    -0.25100
C1644       C  0.63639122  0.85966045  0.59986823     0.27600
H1645       H  0.66399594  0.86857982  0.61802180     0.13400
N1646       N  0.67920217  0.85897501  0.59791287    -0.82300
H1647       H  0.63696981  0.85088168  0.58009588     0.18200
N1648       N  0.62194595  0.85993106  0.60058743    -0.80900
H1649       H  0.68329272  0.86305891  0.60668749     0.33900
H1650       H  0.68202260  0.84884360  0.59772049     0.38400
H1651       H  0.61775720  0.85597334  0.59180215     0.33800
H1652       H  0.61897814  0.85357362  0.60842957     0.30500
H1653       H  0.63513774  0.84503236  0.64365840     0.33800
H1654       H  0.63179933  0.84436089  0.62716616     0.30500
H1655       H  0.61531564  0.90611934  0.63357741     0.38400
H1656       H  0.62860418  0.90931697  0.62366600     0.33900
C1657       C  0.22031304  0.00427623  0.84843927    -0.19900
C1658       C  0.22550542  0.00366886  0.86165812     0.36300
C1659       C  0.23591234  0.99449050  0.86460687    -0.25900
C1660       C  0.24124330  0.98607529  0.85461553     0.02800
C1661       C  0.23665540  0.98724818  0.84130537     0.27600
C1662       C  0.22628421  0.99635025  0.83834676    -0.25000
N1663       N  0.21965407  0.01162594  0.87220437    -0.82400
H1664       H  0.23949211  0.99346282  0.87484563     0.13400
C1665       C  0.25022247  0.97485495  0.85850835     0.02700
N1666       N  0.24212363  0.97871583  0.83099018    -0.80900
H1667       H  0.22250148  0.99691246  0.82814853     0.18200
C1668       C  0.24443698  0.96224595  0.86096850    -0.25800
C1669       C  0.25232573  0.95128008  0.86507591     0.36200
C1670       C  0.26633536  0.95299320  0.86680272    -0.19800
C1671       C  0.27219316  0.96553505  0.86387009    -0.25100
C1672       C  0.26422875  0.97653528  0.85978470     0.27600
H1673       H  0.23367105  0.96101065  0.85976812     0.13400
N1674       N  0.24616292  0.93840183  0.86745052    -0.82300
H1675       H  0.28292369  0.96687048  0.86520764     0.18200
N1676       N  0.27022609  0.98943998  0.85720425    -0.80900
H1677       H  0.23578659  0.93887898  0.86581018     0.33900
H1678       H  0.25004162  0.93168620  0.86034864     0.38400
H1679       H  0.28061690  0.98903759  0.85876534     0.33800
H1680       H  0.26882488  0.99165034  0.84702042     0.30500
H1681       H  0.23747083  0.98063340  0.82176137     0.33800
H1682       H  0.25226483  0.98124211  0.82979891     0.30500
H1683       H  0.22380326  0.00901900  0.88150657     0.38400
H1684       H  0.22248178  0.02160267  0.87048258     0.33900
C1685       C  0.14888033  0.09163145  0.84718150    -0.19900
C1686       C  0.13518651  0.09548870  0.84653307     0.36300
C1687       C  0.13131082  0.10833442  0.85103442    -0.25900
C1688       C  0.14070049  0.11729220  0.85650353     0.02800
C1689       C  0.15430521  0.11344152  0.85739175     0.27600
C1690       C  0.15825905  0.10065354  0.85273702    -0.25000
N1691       N  0.12517647  0.08624377  0.84172470    -0.82400
H1692       H  0.12082471  0.11128398  0.85060089     0.13400
C1693       C  0.13588465  0.13040112  0.86181396     0.02700
N1694       N  0.16403108  0.12255605  0.86296667    -0.80900
H1695       H  0.16876100  0.09781017  0.85326902     0.18200
C1696       C  0.13504260  0.13226455  0.87576035    -0.25800
C1697       C  0.12921725  0.14395663  0.88122467     0.36200
C1698       C  0.12428111  0.15407284  0.87252791    -0.19800
C1699       C  0.12531743  0.15226195  0.85855249    -0.25100
C1700       C  0.13120419  0.14057492  0.85311185     0.27600
H1701       H  0.13854394  0.12434811  0.88239128     0.13400
N1702       N  0.12783515  0.14534586  0.89555069    -0.82300
H1703       H  0.12161633  0.16004436  0.85187494     0.18200
N1704       N  0.13242269  0.13893824  0.83879990    -0.80900
H1705       H  0.13197865  0.13704057  0.90050215     0.33900
H1706       H  0.11755175  0.14532901  0.89778471     0.38400
H1707       H  0.12850335  0.14731529  0.83378718     0.33800
H1708       H  0.14268512  0.13860303  0.83649326     0.30500
H1709       H  0.17359809  0.11818659  0.86296984     0.33800
H1710       H  0.16455926  0.13093483  0.85661628     0.30500
H1711       H  0.12480979  0.07816259  0.84846042     0.38400
H1712       H  0.11563844  0.09067566  0.84185629     0.33900
C1713       C  0.80084380  0.49052900  0.85911741    -0.19900
C1714       C  0.80241596  0.50434718  0.86203455     0.36300
C1715       C  0.79154489  0.51164467  0.86733232    -0.25900
C1716       C  0.77915824  0.50545043  0.87008631     0.02800
C1717       C  0.77754487  0.49162487  0.86724791     0.27600
C1718       C  0.78844192  0.48428152  0.86183904    -0.25000
N1719       N  0.81514106  0.51088502  0.85985783    -0.82400
H1720       H  0.79276800  0.52226575  0.86946251     0.13400
C1721       C  0.76827528  0.51366511  0.87634488     0.02700
N1722       N  0.76490585  0.48510924  0.86990822    -0.80900
H1723       H  0.78719909  0.47370219  0.85954132     0.18200
C1724       C  0.75579725  0.51514659  0.86990172    -0.25800
C1725       C  0.74583410  0.52377083  0.87513003     0.36200
C1726       C  0.74840872  0.53126272  0.88692077    -0.19800
C1727       C  0.76082585  0.52947716  0.89345930    -0.25100
C1728       C  0.77065110  0.52067871  0.88842979     0.27600
H1729       H  0.75384934  0.50974912  0.86064576     0.13400
N1730       N  0.73309426  0.52469840  0.86851137    -0.82300
H1731       H  0.76308214  0.53512033  0.90246677     0.18200
N1732       N  0.78311557  0.51887175  0.89553035    -0.80900
H1733       H  0.72885856  0.51507404  0.86820922     0.33900
H1734       H  0.73478390  0.52784406  0.85861122     0.38400
H1735       H  0.78335920  0.52481140  0.90419827     0.33800
H1736       H  0.78351480  0.50885724  0.89873846     0.30500
H1737       H  0.76534110  0.47496551  0.86716915     0.33800
H1738       H  0.76329230  0.48535250  0.88029949     0.30500
H1739       H  0.82210793  0.50647474  0.86637944     0.38400
H1740       H  0.81459956  0.52105935  0.86246492     0.33900
C1741       C  0.89377383  0.24886673  0.94105899    -0.19900
C1742       C  0.88918361  0.23582377  0.93769984     0.36300
C1743       C  0.88404909  0.22735094  0.94784573    -0.25900
C1744       C  0.88354427  0.23155656  0.96129118     0.02800
C1745       C  0.88804464  0.24457222  0.96466643     0.27600
C1746       C  0.89298796  0.25316159  0.95448989    -0.25000
N1747       N  0.88967714  0.23125547  0.92399190    -0.82400
H1748       H  0.88056581  0.21733955  0.94530571     0.13400
C1749       C  0.87855171  0.22205021  0.97174085     0.02700
N1750       N  0.88770343  0.24893057  0.97843714    -0.80900
H1751       H  0.89658436  0.26311151  0.95709741     0.18200
C1752       C  0.88775051  0.21588551  0.98045817    -0.25800
C1753       C  0.88358730  0.20604293  0.98980876     0.36200
C1754       C  0.86981608  0.20250515  0.99069297    -0.19800
C1755       C  0.86059171  0.20899881  0.98210750    -0.25100
C1756       C  0.86482284  0.21868138  0.97264301     0.27600
H1757       H  0.89831376  0.21845957  0.97963417     0.13400
N1758       N  0.89340209  0.19930266  0.99798486    -0.82300
H1759       H  0.85000551  0.20650663  0.98274399     0.18200
N1760       N  0.85526758  0.22504641  0.96385854    -0.80900
H1761       H  0.90301857  0.20318443  0.99619889     0.33900
H1762       H  0.89364817  0.18922444  0.99499119     0.38400
H1763       H  0.84556679  0.22141800  0.96572110     0.33800
H1764       H  0.85514149  0.23530447  0.96617479     0.30500
H1765       H  0.89150218  0.25870263  0.97928336     0.33800
H1766       H  0.87761819  0.24933829  0.98141217     0.30500
H1767       H  0.88318514  0.23733519  0.91838485     0.38400
H1768       H  0.88601765  0.22142144  0.92323896     0.33900
C1769       C  0.97609913  0.26062778  0.87309960    -0.19900
C1770       C  0.97767481  0.24753273  0.86787076     0.36300
C1771       C  0.99042330  0.24146205  0.86804389    -0.25900
C1772       C  0.00154843  0.24823544  0.87336100     0.02800
C1773       C  0.00020111  0.26165854  0.87775170     0.27600
C1774       C  0.98745446  0.26779999  0.87743631    -0.25000
N1775       N  0.96622929  0.24032792  0.86278316    -0.82400
H1776       H  0.99158094  0.23117092  0.86464246     0.13400
C1777       C  0.01391977  0.24047220  0.87606886     0.02700
N1778       N  0.01167507  0.26882995  0.88285290    -0.80900
H1779       H  0.98622819  0.27786958  0.88141635     0.18200
C1780       C  0.02386112  0.23914056  0.86613206    -0.25800
C1781       C  0.03561103  0.23165834  0.86864593     0.36200
C1782       C  0.03743929  0.22551627  0.88130407    -0.19800
C1783       C  0.02728755  0.22665012  0.89107550    -0.25100
C1784       C  0.01550255  0.23395460  0.88855211     0.27600
H1785       H  0.02253554  0.24399730  0.85646028     0.13400
N1786       N  0.04581325  0.23071328  0.85851154    -0.82300
H1787       H  0.02856333  0.22179881  0.90075662     0.18200
N1788       N  0.00500178  0.23458214  0.89851380    -0.80900
H1789       H  0.04886979  0.24046513  0.85599811     0.33900
H1790       H  0.04151611  0.22636402  0.84996792     0.38400
H1791       H  0.00758537  0.22892114  0.90699525     0.33800
H1792       H  0.00416748  0.24455203  0.90172268     0.30500
H1793       H  0.00897544  0.27862500  0.88556934     0.33800
H1794       H  0.01483545  0.26405792  0.89166769     0.30500
H1795       H  0.96269223  0.24557591  0.85438331     0.38400
H1796       H  0.96907714  0.23078682  0.85939760     0.33900
C1797       C  0.89984335  0.34176218  0.87715589    -0.19900
C1798       C  0.90039679  0.34438624  0.86314275     0.36300
C1799       C  0.89479283  0.35635307  0.85797769    -0.25900
C1800       C  0.88840118  0.36569384  0.86640573     0.02800
C1801       C  0.88767182  0.36302210  0.88034205     0.27600
C1802       C  0.89331041  0.35107877  0.88554777    -0.25000
N1803       N  0.90628176  0.33474445  0.85411825    -0.82400
H1804       H  0.89517291  0.35830398  0.84725731     0.13400
C1805       C  0.88232255  0.37813634  0.86051163    -0.06900
N1806       N  0.88134979  0.37256024  0.88917873    -0.80900
H1807       H  0.89283869  0.34916996  0.89626808     0.18200
C1808       C  0.86846349  0.38045060  0.86195837    -0.25800
C1809       C  0.86235371  0.39217823  0.85680787     0.36200
C1810       C  0.87030768  0.40197792  0.85017773    -0.19800
C1811       C  0.88413502  0.39945138  0.84843686    -0.25100
C1812       C  0.89021743  0.38769797  0.85355876     0.27600
H1813       H  0.86235890  0.37298086  0.86706000     0.13400
N1814       N  0.84806733  0.39399535  0.85807298    -0.82300
H1815       H  0.89032959  0.40685173  0.84335791     0.18200
N1816       N  0.90442993  0.38555174  0.85193996    -0.80900
H1817       H  0.84371994  0.38591463  0.86323840     0.33900
H1818       H  0.84400698  0.39390477  0.84837958     0.38400
H1819       H  0.90879741  0.39348391  0.84656595     0.33800
H1820       H  0.90876001  0.38564654  0.86151525     0.30500
H1821       H  0.88160778  0.36912969  0.89912057     0.33800
H1822       H  0.88703031  0.38141182  0.88887282     0.30500
H1823       H  0.90035832  0.32605560  0.85447785     0.38400
H1824       H  0.90594688  0.33822595  0.84419553     0.33900
C1825       C  0.15321096  0.97315363  0.71339351    -0.19900
C1826       C  0.13963719  0.97607247  0.71639184     0.36300
C1827       C  0.13629857  0.98199568  0.72881456    -0.25900
C1828       C  0.14634050  0.98497560  0.73823192     0.02800
C1829       C  0.15979043  0.98168034  0.73540918     0.27600
C1830       C  0.16312006  0.97583016  0.72307025    -0.25000
N1831       N  0.12932444  0.97360554  0.70667438    -0.82400
H1832       H  0.12592207  0.98453842  0.73098917     0.13400
C1833       C  0.14305624  0.99202908  0.75087546     0.02700
N1834       N  0.17014029  0.98456691  0.74499196    -0.80900
H1835       H  0.17357379  0.97352471  0.72099645     0.18200
C1836       C  0.14157105  0.98448672  0.76267523    -0.25800
C1837       C  0.14143117  0.99080041  0.77530364     0.36200
C1838       C  0.14307147  0.00491239  0.77608436    -0.19800
C1839       C  0.14332978  0.01252566  0.76417844    -0.25100
C1840       C  0.14346437  0.00618453  0.75153976     0.27600
H1841       H  0.14115462  0.97360887  0.76204319     0.13400
N1842       N  0.14001408  0.98291561  0.78735595    -0.82300
H1843       H  0.14444219  0.02335179  0.76472260     0.18200
N1844       N  0.14460218  0.01400543  0.73941234    -0.80900
H1845       H  0.13900812  0.97270832  0.78503091     0.33900
H1846       H  0.13104506  0.98583624  0.79201991     0.38400
H1847       H  0.14465431  0.02428139  0.74163205     0.33800
H1848       H  0.15393792  0.01185459  0.73505099     0.30500
H1849       H  0.17502470  0.97555352  0.74734178     0.33800
H1850       H  0.17713522  0.99097546  0.74042225     0.30500
H1851       H  0.12222338  0.96716680  0.71102724     0.38400
H1852       H  0.12456402  0.98274482  0.70456147     0.33900
C1853       C  0.15093884  0.90405318  0.62577674    -0.19900
C1854       C  0.14905038  0.89183127  0.63280046     0.36300
C1855       C  0.14354945  0.88069094  0.62603850    -0.25900
C1856       C  0.13981799  0.88159590  0.61247680     0.02800
C1857       C  0.14180474  0.89374421  0.60542724     0.27600
C1858       C  0.14746436  0.90483507  0.61212439    -0.25000
N1859       N  0.15284319  0.89074503  0.64670597    -0.82400
H1860       H  0.14203187  0.87129388  0.63137165     0.13400
C1861       C  0.13357880  0.86980885  0.60583524     0.02700
N1862       N  0.13794619  0.89476965  0.59153861    -0.80900
H1863       H  0.14889943  0.91422529  0.60675876     0.18200
C1864       C  0.11974505  0.86995968  0.60314740    -0.25800
C1865       C  0.11339612  0.85890931  0.59700594     0.36200
C1866       C  0.12109493  0.84748712  0.59347298    -0.19800
C1867       C  0.13499715  0.84747089  0.59601921    -0.25100
C1868       C  0.14130418  0.85849530  0.60223188     0.27600
H1869       H  0.11389505  0.87873884  0.60589556     0.13400
N1870       N  0.09922836  0.85934126  0.59418045    -0.82300
H1871       H  0.14092494  0.83871528  0.59338297     0.18200
N1872       N  0.15549585  0.85824540  0.60496635    -0.80900
H1873       H  0.09505671  0.86841261  0.59748697     0.33900
H1874       H  0.09808771  0.85914616  0.58373039     0.38400
H1875       H  0.15970789  0.84913931  0.60181192     0.33800
H1876       H  0.15999576  0.86580507  0.59918017     0.30500
H1877       H  0.13992281  0.90442736  0.58784829     0.33800
H1878       H  0.14401573  0.88815862  0.58605317     0.30500
H1879       H  0.15074723  0.88110845  0.65038701     0.38400
H1880       H  0.16327487  0.89197346  0.64724036     0.33900
C1881       C  0.86545154  0.51452149  0.70937670    -0.19900
C1882       C  0.87850433  0.51110822  0.71376023     0.36300
C1883       C  0.88028831  0.50481211  0.72637367    -0.25900
C1884       C  0.86921134  0.50198677  0.73471203     0.02800
C1885       C  0.85618825  0.50549815  0.73038986     0.27600
C1886       C  0.85444866  0.51167021  0.71780588    -0.25000
N1887       N  0.88990303  0.51369846  0.70532729    -0.82400
H1888       H  0.89032887  0.50220466  0.72969910     0.13400
C1889       C  0.87109717  0.49606105  0.74831785     0.02700
N1890       N  0.84477189  0.50287678  0.73890729    -0.80900
H1891       H  0.84439275  0.51435042  0.71459051     0.18200
C1892       C  0.87017617  0.50456945  0.75948484    -0.25800
C1893       C  0.86949427  0.49937036  0.77262605     0.36200
C1894       C  0.86935135  0.48526779  0.77466587    -0.19800
C1895       C  0.87125901  0.47677371  0.76350232    -0.25100
C1896       C  0.87206949  0.48204257  0.75032266     0.27600
H1897       H  0.86958633  0.51534182  0.75788379     0.13400
N1898       N  0.86884071  0.50839638  0.78389014    -0.82300
H1899       H  0.87137824  0.46597508  0.76495926     0.18200
N1900       N  0.87343727  0.47321723  0.73896186    -0.80900
H1901       H  0.86894964  0.51841148  0.78065711     0.33900
H1902       H  0.87756468  0.50697306  0.78957308     0.38400
H1903       H  0.87413348  0.46321103  0.74214536     0.33800
H1904       H  0.86463510  0.47395415  0.73327036     0.30500
H1905       H  0.83591049  0.50625874  0.73437560     0.33800
H1906       H  0.84385258  0.49244328  0.73990072     0.30500
H1907       H  0.89655709  0.51985250  0.71064395     0.38400
H1908       H  0.89473347  0.50454269  0.70347074     0.33900
C1909       C  0.89584388  0.74434019  0.53426096    -0.19900
C1910       C  0.90448362  0.74819015  0.52362694     0.36300
C1911       C  0.89984771  0.75716411  0.51374612    -0.25900
C1912       C  0.88669358  0.76215692  0.51411647     0.02800
C1913       C  0.87766887  0.75743749  0.52404665     0.27600
C1914       C  0.88235770  0.74854001  0.53406916    -0.25000
N1915       N  0.91797784  0.74303114  0.52296992    -0.82400
H1916       H  0.90663235  0.76059600  0.50591316     0.13400
C1917       C  0.88302744  0.77312541  0.50468252     0.02700
N1918       N  0.86383692  0.76166776  0.52389969    -0.80900
H1919       H  0.87564962  0.74535448  0.54206470     0.18200
C1920       C  0.87936504  0.77010057  0.49139899    -0.25800
C1921       C  0.87666736  0.78043291  0.48208275     0.36200
C1922       C  0.87763619  0.79399296  0.48610677    -0.19800
C1923       C  0.88136532  0.79696512  0.49938036    -0.25100
C1924       C  0.88424708  0.78668826  0.50865963     0.27600
H1925       H  0.87861817  0.75969103  0.48825925     0.13400
N1926       N  0.87254434  0.77711657  0.46870129    -0.82300
H1927       H  0.88217001  0.80738468  0.50247565     0.18200
N1928       N  0.88886755  0.78996620  0.52196099    -0.80900
H1929       H  0.86383526  0.77124790  0.46934437     0.33900
H1930       H  0.88009938  0.77125926  0.46431288     0.38400
H1931       H  0.88966335  0.80038983  0.52312082     0.33800
H1932       H  0.88159167  0.78675613  0.52884163     0.30500
H1933       H  0.85850866  0.75711115  0.53175764     0.33800
H1934       H  0.86352836  0.77201366  0.52568432     0.30500
H1935       H  0.91731876  0.73261795  0.52163951     0.38400
H1936       H  0.92301143  0.74683443  0.51453816     0.33900
C1937       C  0.98178194  0.73220656  0.59855834    -0.19900
C1938       C  0.99340943  0.72560982  0.59381206     0.36300
C1939       C  0.00588647  0.73226164  0.59446713    -0.25900
C1940       C  0.00688980  0.74525896  0.59989316     0.02800
C1941       C  0.99541617  0.75141592  0.60548646     0.27600
C1942       C  0.98292283  0.74489760  0.60459368    -0.25000
N1943       N  0.99235897  0.71264893  0.58750699    -0.82400
H1944       H  0.01474708  0.72757543  0.59017264     0.13400
C1945       C  0.01965908  0.75282510  0.59842264     0.02700
N1946       N  0.99648549  0.76441108  0.61172112    -0.80900
H1947       H  0.97394996  0.74988940  0.60826874     0.18200
C1948       C  0.01976742  0.76456402  0.59054673    -0.25800
C1949       C  0.03178524  0.77158506  0.58804345     0.36200
C1950       C  0.04391957  0.76664200  0.59345058    -0.19800
C1951       C  0.04378924  0.75499844  0.60144205    -0.25100
C1952       C  0.03173203  0.74811598  0.60412578     0.27600
H1953       H  0.01046948  0.76805290  0.58606195     0.13400
N1954       N  0.03181485  0.78320803  0.57941921    -0.82300
H1955       H  0.05316487  0.75123306  0.60552479     0.18200
N1956       N  0.03168178  0.73633913  0.61252733    -0.80900
H1957       H  0.02217209  0.78500531  0.57563663     0.33900
H1958       H  0.03422878  0.79154377  0.58533134     0.38400
H1959       H  0.04140211  0.73419443  0.61590904     0.33800
H1960       H  0.02593657  0.73854988  0.62106309     0.30500
H1961       H  0.98710868  0.76757014  0.61529964     0.33800
H1962       H  0.00270536  0.76336600  0.62012774     0.30500
H1963       H  0.98949696  0.70574498  0.59491542     0.38400
H1964       H  0.00175889  0.70949310  0.58398442     0.33900
C1965       C  0.87299394  0.59462300  0.63035608    -0.19900
C1966       C  0.88689532  0.59758373  0.63120240     0.36300
C1967       C  0.89173654  0.61008249  0.62654449    -0.25900
C1968       C  0.88307088  0.61968231  0.62087980     0.02800
C1969       C  0.86920807  0.61672002  0.61994241     0.27600
C1970       C  0.86434724  0.60422355  0.62459287    -0.25000
N1971       N  0.89613820  0.58776432  0.63640456    -0.82400
H1972       H  0.90241000  0.61223566  0.62703319     0.13400
C1973       C  0.88872263  0.63255865  0.61550558     0.02700
N1974       N  0.86009883  0.62648304  0.61438986    -0.80900
H1975       H  0.85368397  0.60208716  0.62394810     0.18200
C1976       C  0.88658025  0.63595072  0.60196153    -0.25800
C1977       C  0.89185010  0.64787556  0.59638788     0.36200
C1978       C  0.89939847  0.65671300  0.60455277    -0.19800
C1979       C  0.90175633  0.65320282  0.61804657    -0.25100
C1980       C  0.89641826  0.64129576  0.62363478     0.27600
H1981       H  0.88093232  0.62911851  0.59563686     0.13400
N1982       N  0.88985405  0.65083240  0.58237766    -0.82300
H1983       H  0.90754691  0.65993322  0.62434874     0.18200
N1984       N  0.89862935  0.63813319  0.63757088    -0.80900
H1985       H  0.88405158  0.64335250  0.57781054     0.33900
H1986       H  0.89927874  0.65060800  0.57769501     0.38400
H1987       H  0.90451854  0.64554422  0.64213967     0.33800
H1988       H  0.88928195  0.63829400  0.64240740     0.30500
H1989       H  0.85026101  0.62276023  0.61434996     0.33800
H1990       H  0.86012332  0.63484905  0.62075451     0.30500
H1991       H  0.89609249  0.57956156  0.62983090     0.38400
H1992       H  0.90595689  0.59153926  0.63641445     0.33900
C1993       C  0.85462230  0.38807106  0.37607727    -0.19900
C1994       C  0.86495062  0.39630989  0.37070997     0.36300
C1995       C  0.87667077  0.39034552  0.36537681    -0.25900
C1996       C  0.87840090  0.37631924  0.36523897     0.02800
C1997       C  0.86807034  0.36808492  0.37053380     0.27600
C1998       C  0.85640170  0.37403669  0.37599027    -0.25000
N1999       N  0.86372557  0.41071374  0.37100914    -0.82400
H2000       H  0.88466256  0.39670916  0.36155058     0.13400
C2001       C  0.89121878  0.37043478  0.35988351     0.02700
N2002       N  0.86939879  0.35368591  0.37020854    -0.80900
H2003       H  0.84851968  0.36763426  0.37996826     0.18200
C2004       C  0.89881412  0.36175113  0.36803640    -0.25800
C2005       C  0.91103976  0.35614101  0.36352333     0.36200
C2006       C  0.91581545  0.35914889  0.35042339    -0.19800
C2007       C  0.90829533  0.36801586  0.34235658    -0.25100
C2008       C  0.89607029  0.37362120  0.34689364     0.27600
H2009       H  0.89530005  0.35954452  0.37812424     0.13400
N2010       N  0.91875571  0.34772741  0.37238673    -0.82300
H2011       H  0.91182932  0.37039842  0.33232190     0.18200
N2012       N  0.88848191  0.38241205  0.33827950    -0.80900
H2013       H  0.91378668  0.34642112  0.38157587     0.33900
H2014       H  0.92773445  0.35277435  0.37450091     0.38400
H2015       H  0.89344363  0.38382275  0.32910256     0.33800
H2016       H  0.87937481  0.37762864  0.33610662     0.30500
H2017       H  0.86097435  0.34907279  0.37452084     0.33800
H2018       H  0.86962572  0.35075408  0.36011460     0.30500
H2019       H  0.86368338  0.41367549  0.38109612     0.38400
H2020       H  0.87210412  0.41527330  0.36655109     0.33900
C2021       C  0.74985254  0.46427815  0.60088110    -0.19900
C2022       C  0.75341450  0.47563934  0.59309293     0.36300
C2023       C  0.76226772  0.48527196  0.59843273    -0.25900
C2024       C  0.76779327  0.48373171  0.61132305     0.02800
C2025       C  0.76401489  0.47248039  0.61920568     0.27600
C2026       C  0.75491389  0.46300105  0.61397151    -0.25000
N2027       N  0.74796048  0.47740012  0.57982390    -0.82400
H2028       H  0.76489150  0.49404425  0.59250039     0.13400
C2029       C  0.77750979  0.49395183  0.61642560     0.02700
N2030       N  0.76972566  0.47051499  0.63233879    -0.80900
H2031       H  0.75224862  0.45424215  0.61990577     0.18200
C2032       C  0.77521587  0.49996280  0.62899390    -0.25800
C2033       C  0.78450259  0.50904928  0.63452788     0.36200
C2034       C  0.79617115  0.51248227  0.62719312    -0.19800
C2035       C  0.79817721  0.50703712  0.61435228    -0.25100
C2036       C  0.78909505  0.49761206  0.60897375     0.27600
H2037       H  0.76619604  0.49742641  0.63458386     0.13400
N2038       N  0.78217873  0.51476575  0.64760336    -0.82300
H2039       H  0.80722867  0.50959607  0.60882003     0.18200
N2040       N  0.79183155  0.49141709  0.59619813    -0.80900
H2041       H  0.77319504  0.51112930  0.65171701     0.33900
H2042       H  0.78095226  0.52513866  0.64635087     0.38400
H2043       H  0.80072294  0.49522047  0.59203557     0.33800
H2044       H  0.79344722  0.48116502  0.59792302     0.30500
H2045       H  0.76587537  0.46180074  0.63682045     0.33800
H2046       H  0.78005715  0.46896875  0.63110109     0.30500
H2047       H  0.73756368  0.47864719  0.58082154     0.38400
H2048       H  0.75165824  0.48621202  0.57540423     0.33900
C2049       C  0.74458137  0.39301907  0.51983792    -0.19900
C2050       C  0.73736404  0.38732005  0.50903367     0.36300
C2051       C  0.74383133  0.38521301  0.49658539    -0.25900
C2052       C  0.75737301  0.38878910  0.49474407     0.02800
C2053       C  0.76480003  0.39371272  0.50573321     0.27600
C2054       C  0.75835651  0.39575310  0.51813677    -0.25000
N2055       N  0.72331253  0.38444923  0.51035546    -0.82400
H2056       H  0.73805300  0.38154035  0.48811820     0.13400
C2057       C  0.76309842  0.38961351  0.48096714     0.02700
N2058       N  0.77875245  0.39714911  0.50404181    -0.80900
H2059       H  0.76407179  0.39986719  0.52643514     0.18200
C2060       C  0.76537272  0.40243261  0.47559959    -0.25800
C2061       C  0.77097552  0.40413225  0.46277416     0.36200
C2062       C  0.77413904  0.39271004  0.45490770    -0.19800
C2063       C  0.77211676  0.37980235  0.46036935    -0.25100
C2064       C  0.76660263  0.37814589  0.47339108     0.27600
H2065       H  0.76283371  0.41120370  0.48155641     0.13400
N2066       N  0.77369687  0.41746172  0.45781925    -0.82300
H2067       H  0.77462466  0.37104532  0.45439227     0.18200
N2068       N  0.76456244  0.36495037  0.47894657    -0.80900
H2069       H  0.77070450  0.42473267  0.46480166     0.33900
H2070       H  0.78412323  0.41839683  0.45676931     0.38400
H2071       H  0.76764023  0.35758954  0.47209711     0.33800
H2072       H  0.77081376  0.36403444  0.48734413     0.30500
H2073       H  0.78276257  0.40083457  0.51302678     0.33800
H2074       H  0.78395211  0.38827930  0.50182852     0.30500
H2075       H  0.71813947  0.39005070  0.50311372     0.38400
H2076       H  0.72186171  0.37425122  0.50824026     0.33900
C2077       C  0.66828930  0.38661174  0.60230432    -0.19900
C2078       C  0.66519465  0.37281136  0.60063236     0.36300
C2079       C  0.65299178  0.36766249  0.60570456    -0.25900
C2080       C  0.64384358  0.37589566  0.61261417     0.02800
C2081       C  0.64706911  0.38958098  0.61464330     0.27600
C2082       C  0.65925807  0.39477416  0.60952360    -0.25000
N2083       N  0.67456063  0.36397453  0.59405435    -0.82400
H2084       H  0.65063899  0.35710037  0.60438932     0.13400
C2085       C  0.63092270  0.37004248  0.61763206     0.02700
N2086       N  0.63784253  0.39819841  0.62170162    -0.80900
H2087       H  0.66154482  0.40533910  0.61088778     0.18200
C2088       C  0.62799094  0.37032836  0.63144203    -0.25800
C2089       C  0.61588999  0.36495428  0.63655412     0.36200
C2090       C  0.60632371  0.35937305  0.62762213    -0.19800
C2091       C  0.60943119  0.35881694  0.61383000    -0.25100
C2092       C  0.62158117  0.36411321  0.60874760     0.27600
H2093       H  0.63529580  0.37460614  0.63829059     0.13400
N2094       N  0.61348578  0.36484041  0.65081319    -0.82300
H2095       H  0.60221299  0.35449223  0.60692605     0.18200
N2096       N  0.62439567  0.36366656  0.59456523    -0.80900
H2097       H  0.62147466  0.36933608  0.65595119     0.33900
H2098       H  0.61319776  0.35478666  0.65391246     0.38400
H2099       H  0.61656193  0.35893396  0.58940223     0.33800
H2100       H  0.62476999  0.37358361  0.59106249     0.30500
H2101       H  0.64169616  0.40796197  0.62238461     0.33800
H2102       H  0.62905161  0.39883078  0.61597834     0.30500
H2103       H  0.68322408  0.36354615  0.59998703     0.38400
H2104       H  0.67074939  0.35418018  0.59360262     0.33900
C2105       C  0.97559755  0.11048048  0.22842759    -0.19900
C2106       C  0.98490879  0.12036648  0.22402752     0.36300
C2107       C  0.99435804  0.12571352  0.23321749    -0.25900
C2108       C  0.99478454  0.12132703  0.24665385     0.02800
C2109       C  0.98550107  0.11152634  0.25102593     0.27600
C2110       C  0.97599142  0.10637963  0.24198176    -0.25000
N2111       N  0.98492265  0.12483254  0.21028274    -0.82400
H2112       H  0.00141076  0.13334928  0.22990892     0.13400
C2113       C  0.00447539  0.12734881  0.25639983     0.02700
N2114       N  0.98581639  0.10677091  0.26469750    -0.80900
H2115       H  0.96881146  0.09906405  0.24566068     0.18200
C2116       C  0.99932057  0.13354400  0.26794860    -0.25800
C2117       C  0.00778221  0.13809021  0.27826366     0.36200
C2118       C  0.02193696  0.13708801  0.27678120    -0.19800
C2119       C  0.02715343  0.13101620  0.26510337    -0.25100
C2120       C  0.01855421  0.12605874  0.25492936     0.27600
H2121       H  0.98851382  0.13443096  0.26911398     0.13400
N2122       N  0.00194571  0.14327170  0.29044394    -0.82300
H2123       H  0.03795102  0.13017943  0.26388716     0.18200
N2124       N  0.02403811  0.11957645  0.24323027    -0.80900
H2125       H  0.99144571  0.14341092  0.28985817     0.33900
H2126       H  0.00441604  0.13662779  0.29821899     0.38400
H2127       H  0.03454602  0.11945991  0.24365512     0.33800
H2128       H  0.02090749  0.10953394  0.24341154     0.30500
H2129       H  0.97826675  0.09963556  0.26638025     0.33800
H2130       H  0.99499171  0.10183611  0.26612717     0.30500
H2131       H  0.99220599  0.13228033  0.20878638     0.38400
H2132       H  0.98774723  0.11665621  0.20430695     0.33900
C2133       C  0.99746421  0.28149835  0.34907685    -0.19900
C2134       C  0.00983405  0.27979289  0.35582120     0.36300
C2135       C  0.01630826  0.26721755  0.35550417    -0.25900
C2136       C  0.01073229  0.25630619  0.34851897     0.02800
C2137       C  0.99809068  0.25786313  0.34220782     0.27600
C2138       C  0.99151359  0.27041527  0.34269244    -0.25000
N2139       N  0.01580083  0.29087960  0.36291334    -0.82400
H2140       H  0.02587127  0.26595124  0.36056266     0.13400
C2141       C  0.01849460  0.24350750  0.34745210     0.02700
N2142       N  0.99221360  0.24684123  0.33493865    -0.80900
H2143       H  0.98204821  0.27174076  0.33747044     0.18200
C2144       C  0.01272096  0.23142082  0.35195462    -0.25800
C2145       C  0.01947181  0.21907497  0.35038140     0.36200
C2146       C  0.03229692  0.21881561  0.34425488    -0.19800
C2147       C  0.03834721  0.23093902  0.34031945    -0.25100
C2148       C  0.03151078  0.24327265  0.34168831     0.27600
H2149       H  0.00284610  0.23162260  0.35658420     0.13400
N2150       N  0.01335044  0.20677319  0.35493047    -0.82300
H2151       H  0.04813989  0.23070110  0.33551897     0.18200
N2152       N  0.03753739  0.25550270  0.33682636    -0.80900
H2153       H  0.00391480  0.20867600  0.35918579     0.33900
H2154       H  0.01937433  0.20287623  0.36261443     0.38400
H2155       H  0.04710508  0.25361571  0.33287177     0.33800
H2156       H  0.03164365  0.25902258  0.32886456     0.30500
H2157       H  0.98292285  0.24962799  0.33088672     0.33800
H2158       H  0.99852682  0.24467270  0.32680189     0.30500
H2159       H  0.00932877  0.29343058  0.37080991     0.38400
H2160       H  0.02491015  0.28799192  0.36729299     0.33900
C2161       C  0.11262432  0.14058320  0.34524367    -0.19900
C2162       C  0.11399952  0.12656465  0.34746130     0.36300
C2163       C  0.12593056  0.12147978  0.35319442    -0.25900
C2164       C  0.13643549  0.13006443  0.35699135     0.02800
C2165       C  0.13502250  0.14404478  0.35509186     0.27600
C2166       C  0.12315280  0.14915849  0.34925516    -0.25000
N2167       N  0.10318469  0.11754518  0.34422312    -0.82400
H2168       H  0.12701409  0.11075587  0.35484768     0.13400
C2169       C  0.14880197  0.12426390  0.36311033     0.02700
N2170       N  0.14572752  0.15296418  0.35894329    -0.80900
H2171       H  0.12221290  0.15989714  0.34765351     0.18200
C2172       C  0.15982203  0.12107497  0.35488191    -0.25800
C2173       C  0.17168464  0.11551995  0.36033156     0.36200
C2174       C  0.17252181  0.11309133  0.37433379    -0.19800
C2175       C  0.16146285  0.11637082  0.38253423    -0.25100
C2176       C  0.14958816  0.12182669  0.37705357     0.27600
H2177       H  0.15916461  0.12299319  0.34417114     0.13400
N2178       N  0.18295521  0.11262776  0.35173360    -0.82300
H2179       H  0.16202296  0.11448754  0.39325469     0.18200
N2180       N  0.13823827  0.12472332  0.38554891    -0.80900
H2181       H  0.18067846  0.11492432  0.34172713     0.33900
H2182       H  0.19082435  0.11901088  0.35453900     0.38400
H2183       H  0.14033956  0.12215253  0.39552717     0.33800
H2184       H  0.13668988  0.13512281  0.38538324     0.30500
H2185       H  0.14319563  0.16293631  0.35674675     0.33800
H2186       H  0.14676647  0.15236856  0.36938735     0.30500
H2187       H  0.09508591  0.11990226  0.35051819     0.38400
H2188       H  0.10584878  0.10759817  0.34637925     0.33900
C2189       C  0.50784191  0.12830038  0.69413305    -0.19900
C2190       C  0.52097794  0.12408628  0.69076452     0.36300
C2191       C  0.52952603  0.11910849  0.70086425    -0.25900
C2192       C  0.52525283  0.11818658  0.71430400     0.02800
C2193       C  0.51195793  0.12198022  0.71761731     0.27600
C2194       C  0.50335053  0.12694325  0.70746963    -0.25000
N2195       N  0.52559719  0.12492128  0.67707485    -0.82400
H2196       H  0.53971455  0.11619508  0.69829385     0.13400
C2197       C  0.53511307  0.11375267  0.72472875     0.02700
N2198       N  0.50731667  0.12089363  0.73127285    -0.80900
H2199       H  0.49325802  0.13016530  0.71004236     0.18200
C2200       C  0.53863410  0.12252588  0.73522040    -0.25800
C2201       C  0.54929170  0.11950916  0.74410360     0.36200
C2202       C  0.55649639  0.10731998  0.74257721    -0.19800
C2203       C  0.55240418  0.09826630  0.73248627    -0.25100
C2204       C  0.54187971  0.10134889  0.72357270     0.27600
H2205       H  0.53347058  0.13208658  0.73606669     0.13400
N2206       N  0.55311666  0.12905686  0.75423390    -0.82300
H2207       H  0.55752422  0.08871906  0.73140999     0.18200
N2208       N  0.53814889  0.09200246  0.71319933    -0.80900
H2209       H  0.54666821  0.13736572  0.75413858     0.33900
H2210       H  0.56267898  0.13266762  0.75172731     0.38400
H2211       H  0.54417860  0.08339342  0.71359474     0.33800
H2212       H  0.52829300  0.08887511  0.71515023     0.30500
H2213       H  0.49735348  0.12417175  0.73206233     0.33800
H2214       H  0.50734382  0.11069075  0.73384633     0.30500
H2215       H  0.51966969  0.11840504  0.67134432     0.38400
H2216       H  0.53549714  0.12145908  0.67627065     0.33900
C2217       C  0.53151347  0.27664737  0.63153620    -0.19900
C2218       C  0.53366256  0.26569517  0.64029536     0.36300
C2219       C  0.52738652  0.25334858  0.63764051    -0.25900
C2220       C  0.51903434  0.25165366  0.62640157     0.02800
C2221       C  0.51733193  0.26244076  0.61731253     0.27600
C2222       C  0.52363117  0.27487439  0.61997343    -0.25000
N2223       N  0.54233037  0.26709432  0.65177854    -0.82400
H2224       H  0.52869445  0.24507373  0.64462676     0.13400
C2225       C  0.51176346  0.23864775  0.62493091     0.02700
N2226       N  0.50912783  0.26075999  0.60555115    -0.80900
H2227       H  0.52203715  0.28332807  0.61326975     0.18200
C2228       C  0.49763500  0.23844004  0.62521699    -0.25800
C2229       C  0.49050942  0.22628037  0.62697589     0.36200
C2230       C  0.49773090  0.21407491  0.62829927    -0.19800
C2231       C  0.51180100  0.21428706  0.62685192    -0.25100
C2232       C  0.51886761  0.22639364  0.62521133     0.27600
H2233       H  0.49219095  0.24788065  0.62500894     0.13400
N2234       N  0.47610444  0.22646432  0.62817624    -0.82300
H2235       H  0.51740374  0.20496032  0.62740654     0.18200
N2236       N  0.53330676  0.22636903  0.62432050    -0.80900
H2237       H  0.47369036  0.22382187  0.63807331     0.33900
H2238       H  0.47238867  0.23619313  0.62668717     0.38400
H2239       H  0.53705020  0.21655515  0.62488403     0.33800
H2240       H  0.53592169  0.23007499  0.61482251     0.30500
H2241       H  0.50887881  0.26965855  0.59993495     0.33800
H2242       H  0.51373669  0.25350704  0.59948872     0.30500
H2243       H  0.53756681  0.27344269  0.65866109     0.38400
H2244       H  0.54350671  0.25785012  0.65667110     0.33900
C2245       C  0.26644064  0.04177443  0.60796480    -0.19900
C2246       C  0.25240733  0.04392535  0.60802806     0.36300
C2247       C  0.24386578  0.03388722  0.61310874    -0.25900
C2248       C  0.24907100  0.02176336  0.61809966     0.02800
C2249       C  0.26311130  0.01967825  0.61819909     0.27600
C2250       C  0.27168940  0.02978579  0.61320953    -0.25000
N2251       N  0.24690778  0.05629610  0.60292093    -0.82400
H2252       H  0.23307508  0.03544388  0.61306402     0.13400
C2253       C  0.23962590  0.01141584  0.62325465     0.02700
N2254       N  0.26855992  0.00727941  0.62326639    -0.80900
H2255       H  0.28246457  0.02814648  0.61301376     0.18200
C2256       C  0.23914375  0.99871612  0.61713464    -0.25800
C2257       C  0.23017615  0.98873355  0.62169721     0.36200
C2258       C  0.22125463  0.99167650  0.63239063    -0.19800
C2259       C  0.22180977  0.00445090  0.63845728    -0.25100
C2260       C  0.23097873  0.01426982  0.63410878     0.27600
H2261       H  0.24585030  0.99658358  0.60880093     0.13400
N2262       N  0.23034514  0.97559151  0.61569904    -0.82300
H2263       H  0.21500680  0.00687717  0.64661203     0.18200
N2264       N  0.23161282  0.02712127  0.64071281    -0.80900
H2265       H  0.23354149  0.96878522  0.62305611     0.33900
H2266       H  0.23742564  0.97515263  0.60792062     0.38400
H2267       H  0.22455530  0.02764287  0.64850574     0.33800
H2268       H  0.24109329  0.02792322  0.64517967     0.30500
H2269       H  0.27905128  0.00728067  0.62249693     0.33800
H2270       H  0.26626345  0.00674169  0.63351955     0.30500
H2271       H  0.25029570  0.06408000  0.60911555     0.38400
H2272       H  0.23641107  0.05624821  0.60362382     0.33900
C2273       C  0.27846816  0.10306588  0.52050139    -0.19900
C2274       C  0.27724348  0.11646498  0.51595741     0.36300
C2275       C  0.27142273  0.11911822  0.50334727    -0.25900
C2276       C  0.26665155  0.10860175  0.49528562     0.02800
C2277       C  0.26779581  0.09520576  0.49977709     0.27600
C2278       C  0.27366823  0.09258126  0.51233184    -0.25000
N2279       N  0.28149927  0.12742157  0.52425262    -0.82400
H2280       H  0.27057095  0.12941652  0.49985912     0.13400
C2281       C  0.26104284  0.11148537  0.48182965     0.02700
N2282       N  0.26329738  0.08430853  0.49139974    -0.80900
H2283       H  0.27465373  0.08225023  0.51566463     0.18200
C2284       C  0.26981295  0.11189712  0.47083004    -0.25800
C2285       C  0.26485918  0.11240422  0.45762760     0.36200
C2286       C  0.25079030  0.11204495  0.45540123    -0.19800
C2287       C  0.24204658  0.11275615  0.46650561    -0.25100
C2288       C  0.24706403  0.11250122  0.47974292     0.27600
H2289       H  0.28056413  0.11141159  0.47256356     0.13400
N2290       N  0.27407614  0.11310622  0.44648646    -0.82300
H2291       H  0.23127638  0.11277769  0.46489818     0.18200
N2292       N  0.23804854  0.11306264  0.49105508    -0.80900
H2293       H  0.28403129  0.11321018  0.44986319     0.33900
H2294       H  0.27245855  0.12228377  0.44160113     0.38400
H2295       H  0.22809940  0.11399770  0.48779418     0.33800
H2296       H  0.23865662  0.10391086  0.49619835     0.30500
H2297       H  0.26514547  0.07504979  0.49604595     0.33800
H2298       H  0.25286533  0.08508523  0.49041274     0.30500
H2299       H  0.28867504  0.13297278  0.51890873     0.38400
H2300       H  0.27319540  0.13364279  0.52597835     0.33900
C2301       C  0.41536903  0.13786007  0.63072783    -0.19900
C2302       C  0.40378926  0.14607038  0.62985902     0.36300
C2303       C  0.39176771  0.14069287  0.62463210    -0.25900
C2304       C  0.39111313  0.12732299  0.62021226     0.02800
C2305       C  0.40262790  0.11909809  0.62110442     0.27600
C2306       C  0.41461483  0.12441316  0.62646284    -0.25000
N2307       N  0.40422355  0.15976728  0.63445861    -0.82400
H2308       H  0.38286949  0.14694959  0.62394381     0.13400
C2309       C  0.37837267  0.12210074  0.61441751     0.02700
N2310       N  0.40212890  0.10544891  0.61637082    -0.80900
H2311       H  0.42349231  0.11812011  0.62706426     0.18200
C2312       C  0.37672778  0.12202156  0.60043229    -0.25800
C2313       C  0.36497197  0.11683328  0.59447456     0.36200
C2314       C  0.35452432  0.11169160  0.60273873    -0.19800
C2315       C  0.35623373  0.11189106  0.61679404    -0.25100
C2316       C  0.36803016  0.11704722  0.62270153     0.27600
H2317       H  0.38476251  0.12588153  0.59413353     0.13400
N2318       N  0.36383075  0.11647842  0.58007396    -0.82300
H2319       H  0.34829104  0.10809419  0.62323183     0.18200
N2320       N  0.36953867  0.11723977  0.63707719    -0.80900
H2321       H  0.37227793  0.12082092  0.57552879     0.33900
H2322       H  0.36371875  0.10637430  0.57716546     0.38400
H2323       H  0.36096749  0.11330589  0.64175862     0.33800
H2324       H  0.37750017  0.11082692  0.63953412     0.30500
H2325       H  0.41148745  0.10079593  0.61753161     0.33800
H2326       H  0.39536821  0.10018477  0.62248989     0.30500
H2327       H  0.39490089  0.16443515  0.63308604     0.38400
H2328       H  0.40597484  0.15956911  0.64482375     0.33900
C2329       C  0.77084481  0.53910460  0.10686566    -0.19900
C2330       C  0.76655272  0.53815689  0.12035970     0.36300
C2331       C  0.75839146  0.52731767  0.12442754    -0.25900
C2332       C  0.75440177  0.51736582  0.11523318     0.02800
C2333       C  0.75919407  0.51796674  0.10188469     0.27600
C2334       C  0.76725976  0.52886173  0.09782496    -0.25000
N2335       N  0.76982561  0.54852156  0.12978949    -0.82400
H2336       H  0.75468302  0.52698831  0.13468033     0.13400
C2337       C  0.74430698  0.50707161  0.11934479     0.02700
N2338       N  0.75569104  0.50757809  0.09247060    -0.80900
H2339       H  0.77069351  0.52941005  0.08748989     0.18200
C2340       C  0.73208137  0.50633985  0.11232048    -0.25800
C2341       C  0.72187383  0.49734947  0.11623990     0.36200
C2342       C  0.72396106  0.48883068  0.12740131    -0.19800
C2343       C  0.73622541  0.48948971  0.13438523    -0.25100
C2344       C  0.74647455  0.49843231  0.13039579     0.27600
H2345       H  0.73034999  0.51312234  0.10395837     0.13400
N2346       N  0.70922281  0.49724750  0.10926265    -0.82300
H2347       H  0.73781547  0.48295940  0.14297337     0.18200
N2348       N  0.75905886  0.49876892  0.13748477    -0.80900
H2349       H  0.70185300  0.50062272  0.11597471     0.33900
H2350       H  0.70935513  0.50408446  0.10126077     0.38400
H2351       H  0.75902766  0.49180787  0.14538017     0.33800
H2352       H  0.76656975  0.49570195  0.13078169     0.30500
H2353       H  0.75994151  0.50953931  0.08304160     0.33800
H2354       H  0.75996874  0.49860278  0.09590607     0.30500
H2355       H  0.76083817  0.55256917  0.13347057     0.38400
H2356       H  0.77491947  0.54408795  0.13784703     0.33900
C2357       C  0.63146836  0.25129691  0.03099997    -0.19900
C2358       C  0.63482879  0.23805084  0.03495054     0.36300
C2359       C  0.63934518  0.22882629  0.02526412    -0.25900
C2360       C  0.64061252  0.23253301  0.01172097     0.02800
C2361       C  0.63778607  0.24587899  0.00781691     0.27600
C2362       C  0.63330529  0.25518860  0.01753575    -0.25000
N2363       N  0.63360421  0.23400306  0.04879150    -0.82400
H2364       H  0.64165152  0.21858633  0.02822877     0.13400
C2365       C  0.64453970  0.22209264  0.00179928     0.02700
N2366       N  0.63930896  0.24983321  0.99399084    -0.80900
H2367       H  0.63076481  0.26535081  0.01451388     0.18200
C2368       C  0.63509583  0.21759738  0.99233488    -0.25800
C2369       C  0.63792466  0.20660049  0.98389646     0.36200
C2370       C  0.65048169  0.20007022  0.98478344    -0.19800
C2371       C  0.66006338  0.20490756  0.99398965    -0.25100
C2372       C  0.65721376  0.21580810  0.00251055     0.27600
H2373       H  0.62527097  0.22229804  0.99188208     0.13400
N2374       N  0.62776154  0.20168945  0.97498139    -0.82300
H2375       H  0.66981108  0.20009008  0.99464240     0.18200
N2376       N  0.66704330  0.22040363  0.01204956    -0.80900
H2377       H  0.62503390  0.20953290  0.96852288     0.33900
H2378       H  0.61932450  0.19910923  0.98072910     0.38400
H2379       H  0.67581568  0.21463763  0.01139851     0.33800
H2380       H  0.66969513  0.23023474  0.00938735     0.30500
H2381       H  0.63674960  0.25996104  0.99275129     0.33800
H2382       H  0.64950544  0.24898677  0.99153404     0.30500
H2383       H  0.64045328  0.23970334  0.05436041     0.38400
H2384       H  0.63638260  0.22392788  0.04999461     0.33900
C2385       C  0.62354952  0.34582367  0.09219255    -0.19900
C2386       C  0.63141583  0.35496986  0.08460764     0.36300
C2387       C  0.63610544  0.36690292  0.09066577    -0.25900
C2388       C  0.63324899  0.36994215  0.10418190     0.02800
C2389       C  0.62560092  0.36069016  0.11182437     0.27600
C2390       C  0.62076232  0.34886199  0.10573550    -0.25000
N2391       N  0.63433658  0.35235548  0.07069477    -0.82400
H2392       H  0.64177874  0.37405323  0.08469023     0.13400
C2393       C  0.63802267  0.38297072  0.11007495     0.02700
N2394       N  0.62287110  0.36326963  0.12579448    -0.80900
H2395       H  0.61494046  0.34185439  0.11172696     0.18200
C2396       C  0.62879088  0.39148864  0.11658699    -0.25800
C2397       C  0.63281538  0.40386835  0.12219050     0.36200
C2398       C  0.64640476  0.40796136  0.12118532    -0.19800
C2399       C  0.65558527  0.39955274  0.11447224    -0.25100
C2400       C  0.65160263  0.38707944  0.10906374     0.27600
H2401       H  0.61831028  0.38854485  0.11713377     0.13400
N2402       N  0.62306944  0.41238982  0.12863394    -0.82300
H2403       H  0.66603907  0.40254481  0.11375724     0.18200
N2404       N  0.66136321  0.37847422  0.10274645    -0.80900
H2405       H  0.61357350  0.40786214  0.12863534     0.33900
H2406       H  0.62224009  0.42116594  0.12288592     0.38400
H2407       H  0.67086871  0.38298065  0.10275166     0.33800
H2408       H  0.66213856  0.36974444  0.10857231     0.30500
H2409       H  0.61704873  0.35555139  0.12996407     0.33800
H2410       H  0.63206674  0.36319384  0.13088001     0.30500
H2411       H  0.62523764  0.35265365  0.06544684     0.38400
H2412       H  0.64039636  0.35995344  0.06664402     0.33900
C2413       C  0.48527660  0.23132884  0.10220612    -0.19900
C2414       C  0.48656947  0.24461669  0.10704023     0.36300
C2415       C  0.49937558  0.25049149  0.10789952    -0.25900
C2416       C  0.51091653  0.24343420  0.10389601     0.02800
C2417       C  0.50974021  0.22980231  0.10003003     0.27600
C2418       C  0.49690154  0.22383357  0.09937453    -0.25000
N2419       N  0.47483462  0.25217533  0.11083311    -0.82400
H2420       H  0.50033930  0.26082635  0.11122455     0.13400
C2421       C  0.52385983  0.25085325  0.10259043     0.02700
N2422       N  0.52148200  0.22227735  0.09618820    -0.80900
H2423       H  0.49590996  0.21359117  0.09579389     0.18200
C2424       C  0.53542657  0.24614824  0.10918236    -0.25800
C2425       C  0.54795813  0.25245353  0.10722634     0.36200
C2426       C  0.54881273  0.26385482  0.09882405    -0.19800
C2427       C  0.53719812  0.26891689  0.09271660    -0.25100
C2428       C  0.52477297  0.26237399  0.09426824     0.27600
H2429       H  0.53470743  0.23739217  0.11564705     0.13400
N2430       N  0.55985649  0.24725643  0.11357009    -0.82300
H2431       H  0.53798803  0.27755410  0.08609422     0.18200
N2432       N  0.51318774  0.26705450  0.08699175    -0.80900
H2433       H  0.55753940  0.23877751  0.11936570     0.33900
H2434       H  0.56335545  0.25459643  0.12022659     0.38400
H2435       H  0.51555797  0.27559754  0.08131353     0.33800
H2436       H  0.51050428  0.25954907  0.08014083     0.30500
H2437       H  0.51888627  0.21240365  0.09366827     0.33800
H2438       H  0.52541287  0.22669137  0.08747445     0.30500
H2439       H  0.47045306  0.24731484  0.11908217     0.38400
H2440       H  0.47750716  0.26181643  0.11406874     0.33900
C2441       C  0.24898261  0.96771163  0.09283800    -0.19900
C2442       C  0.24680285  0.97468631  0.10506387     0.36300
C2443       C  0.25645404  0.98404999  0.10958365    -0.25900
C2444       C  0.26801235  0.98686449  0.10198008     0.02800
C2445       C  0.26982900  0.98057584  0.08945840     0.27600
C2446       C  0.26043149  0.97098514  0.08509515    -0.25000
N2447       N  0.23480275  0.97237917  0.11279910    -0.82400
H2448       H  0.25506411  0.98905748  0.11916077     0.13400
C2449       C  0.27871341  0.99557893  0.10762678     0.02700
N2450       N  0.28134985  0.98385468  0.08131727    -0.80900
H2451       H  0.26231344  0.96586520  0.07569124     0.18200
C2452       C  0.29074592  0.98955015  0.11179388    -0.25800
C2453       C  0.30114149  0.99723051  0.11744670     0.36200
C2454       C  0.29951795  0.01125935  0.11883559    -0.19800
C2455       C  0.28762938  0.01738759  0.11432619    -0.25100
C2456       C  0.27712118  0.00962712  0.10880704     0.27600
H2457       H  0.29193728  0.97875993  0.11077188     0.13400
N2458       N  0.31334219  0.99084641  0.12185900    -0.82300
H2459       H  0.28638863  0.02815148  0.11551530     0.18200
N2460       N  0.26481481  0.01588158  0.10454308    -0.80900
H2461       H  0.31290601  0.98046586  0.12022309     0.33900
H2462       H  0.32119349  0.99452083  0.11588056     0.38400
H2463       H  0.26520030  0.02626194  0.10619143     0.33800
H2464       H  0.26400444  0.01452209  0.09414965     0.30500
H2465       H  0.28126406  0.97834008  0.07236997     0.33800
H2466       H  0.28053592  0.99398740  0.07859164     0.30500
H2467       H  0.22665443  0.97565340  0.10702266     0.38400
H2468       H  0.23481756  0.97823701  0.12152691     0.33900
C2469       C  0.37614176  0.09259288  0.12864304    -0.19900
C2470       C  0.37777365  0.10431456  0.13650526     0.36300
C2471       C  0.38397959  0.11572559  0.13083577    -0.25900
C2472       C  0.38858710  0.11571140  0.11748844     0.02800
C2473       C  0.38723215  0.10393291  0.10970369     0.27600
C2474       C  0.38091583  0.09253722  0.11532511    -0.25000
N2475       N  0.37279431  0.10474529  0.15008019    -0.82400
H2476       H  0.38508429  0.12477882  0.13679588     0.13400
C2477       C  0.39434494  0.12829706  0.11172116     0.02700
N2478       N  0.39216166  0.10363918  0.09610408    -0.80900
H2479       H  0.37976126  0.08353345  0.10930413     0.18200
C2480       C  0.40786281  0.12865714  0.10764777    -0.25800
C2481       C  0.41365918  0.14054255  0.10249416     0.36200
C2482       C  0.40575839  0.15232611  0.10143257    -0.19800
C2483       C  0.39216808  0.15185191  0.10529121    -0.25100
C2484       C  0.38639895  0.13998773  0.11045263     0.27600
H2485       H  0.41391818  0.11964164  0.10857640     0.13400
N2486       N  0.42745858  0.14061372  0.09815153    -0.82300
H2487       H  0.38606764  0.16084582  0.10447797     0.18200
N2488       N  0.37248962  0.13974211  0.11443706    -0.80900
H2489       H  0.43185670  0.13117693  0.09965071     0.33900
H2490       H  0.42753343  0.14235433  0.08777708     0.38400
H2491       H  0.36806008  0.14917032  0.11297882     0.33800
H2492       H  0.36748225  0.13304087  0.10807811     0.30500
H2493       H  0.39050032  0.09419528  0.09179316     0.33800
H2494       H  0.38653911  0.11055070  0.09051886     0.30500
H2495       H  0.36231741  0.10392223  0.14966802     0.38400
H2496       H  0.37489605  0.11405274  0.15449459     0.33900
C2497       C  0.77160405  0.46434418  0.37585871    -0.19900
C2498       C  0.77146676  0.46797097  0.36212064     0.36300
C2499       C  0.76266508  0.47809461  0.35762124    -0.25900
C2500       C  0.75394026  0.48459994  0.36659411     0.02800
C2501       C  0.75453623  0.48155895  0.38039397     0.27600
C2502       C  0.76337898  0.47150947  0.38489538    -0.25000
N2503       N  0.77961985  0.46092196  0.35257215    -0.82400
H2504       H  0.76213917  0.48039044  0.34697456     0.13400
C2505       C  0.74297332  0.49311716  0.36127225     0.02700
N2506       N  0.74577667  0.48836113  0.38968276    -0.80900
H2507       H  0.76358294  0.46903103  0.39550368     0.18200
C2508       C  0.73015416  0.48741547  0.36009191    -0.25800
C2509       C  0.71941993  0.49482308  0.35481386     0.36200
C2510       C  0.72146065  0.50823510  0.35066523    -0.19800
C2511       C  0.73421690  0.51411639  0.35223177    -0.25100
C2512       C  0.74506656  0.50661343  0.35744336     0.27600
H2513       H  0.72850123  0.47708764  0.36320709     0.13400
N2514       N  0.70638063  0.48875361  0.35391407    -0.82300
H2515       H  0.73578334  0.52443615  0.34906944     0.18200
N2516       N  0.75818381  0.51254064  0.35872681    -0.80900
H2517       H  0.70347460  0.48572412  0.36356731     0.33900
H2518       H  0.70719255  0.48015334  0.34792244     0.38400
H2519       H  0.75805906  0.52251199  0.35536293     0.33800
H2520       H  0.76052456  0.51284065  0.36896963     0.30500
H2521       H  0.74731272  0.48483989  0.39947511     0.33800
H2522       H  0.74844816  0.49853613  0.38966999     0.30500
H2523       H  0.78576239  0.46794902  0.34769826     0.38400
H2524       H  0.77327404  0.45662490  0.34538501     0.33900
C2525       C  0.64840296  0.51033689  0.27154632    -0.19900
C2526       C  0.64829042  0.49615301  0.27032062     0.36300
C2527       C  0.64808342  0.49029698  0.25749803    -0.25900
C2528       C  0.64776260  0.49826186  0.24589605     0.02800
C2529       C  0.64663353  0.51234830  0.24706288     0.27600
C2530       C  0.64684545  0.51827196  0.25993450    -0.25000
N2531       N  0.64873398  0.48773699  0.28208376    -0.82400
H2532       H  0.64878028  0.47946050  0.25649589     0.13400
C2533       C  0.65064858  0.49174049  0.23283410     0.02700
N2534       N  0.64590593  0.52057913  0.23518843    -0.80900
H2535       H  0.64675297  0.52913125  0.26081121     0.18200
C2536       C  0.64032953  0.48936468  0.22354574    -0.25800
C2537       C  0.64299397  0.48266395  0.21135579     0.36200
C2538       C  0.65619480  0.47829068  0.20841483    -0.19800
C2539       C  0.66644066  0.48068956  0.21783558    -0.25100
C2540       C  0.66382297  0.48740272  0.22994832     0.27600
H2541       H  0.63018940  0.49268962  0.22578019     0.13400
N2542       N  0.63235069  0.48067445  0.20189239    -0.82300
H2543       H  0.67658724  0.47730073  0.21576448     0.18200
N2544       N  0.67448814  0.48982455  0.23940244    -0.80900
H2545       H  0.62838893  0.49009151  0.19938872     0.33900
H2546       H  0.62477501  0.47510362  0.20662953     0.38400
H2547       H  0.68357304  0.48588446  0.23584916     0.33800
H2548       H  0.67581089  0.50023752  0.24010378     0.30500
H2549       H  0.64504611  0.53073299  0.23778833     0.33800
H2550       H  0.65501219  0.51956926  0.23000786     0.30500
H2551       H  0.63988008  0.48940661  0.28752085     0.38400
H2552       H  0.64875810  0.47756445  0.27941364     0.33900
C2553       C  0.64086849  0.74279606  0.44461069    -0.19900
C2554       C  0.64572015  0.75596314  0.44238373     0.36300
C2555       C  0.64988441  0.76376435  0.45336761    -0.25900
C2556       C  0.64932571  0.75867922  0.46651505     0.02800
C2557       C  0.64498711  0.74535947  0.46872777     0.27600
C2558       C  0.64086170  0.73748368  0.45770615    -0.25000
N2559       N  0.64631095  0.76137818  0.42897549    -0.82400
H2560       H  0.65336025  0.77397366  0.45172067     0.13400
C2561       C  0.65315842  0.76766609  0.47776041     0.02700
N2562       N  0.64461850  0.73999501  0.48215082    -0.80900
H2563       H  0.63711868  0.72738144  0.45939517     0.18200
C2564       C  0.64326377  0.77230072  0.48672276    -0.25800
C2565       C  0.64619358  0.78242920  0.49614799     0.36200
C2566       C  0.65925348  0.78794091  0.49668183    -0.19800
C2567       C  0.66928756  0.78269381  0.48819005    -0.25100
C2568       C  0.66636938  0.77265252  0.47873426     0.27600
H2569       H  0.63307201  0.76850697  0.48595898     0.13400
N2570       N  0.63570896  0.78757343  0.50458374    -0.82300
H2571       H  0.67942894  0.78664029  0.48872701     0.18200
N2572       N  0.67667330  0.76771508  0.46985559    -0.80900
H2573       H  0.63184602  0.77957980  0.51024347     0.33900
H2574       H  0.62801425  0.79120038  0.49840938     0.38400
H2575       H  0.68583608  0.77250894  0.47176231     0.33800
H2576       H  0.67808857  0.75751687  0.47202128     0.30500
H2577       H  0.64110506  0.73007902  0.48207172     0.33800
H2578       H  0.65451237  0.73965123  0.48568422     0.30500
H2579       H  0.65321766  0.75561195  0.42352441     0.38400
H2580       H  0.65004260  0.77121501  0.42908448     0.33900
C2581       C  0.62551628  0.65345614  0.37877746    -0.19900
C2582       C  0.63940169  0.65118157  0.37655523     0.36300
C2583       C  0.64367920  0.63897633  0.37077969    -0.25900
C2584       C  0.63441306  0.62906022  0.36702150     0.02800
C2585       C  0.62056934  0.63127788  0.36914206     0.27600
C2586       C  0.61625054  0.64347360  0.37495552    -0.25000
N2587       N  0.64909689  0.66140421  0.37978104    -0.82400
H2588       H  0.65429612  0.63724511  0.36899299     0.13400
C2589       C  0.63938537  0.61657909  0.36048135     0.02700
N2590       N  0.61098892  0.62109040  0.36548037    -0.80900
H2591       H  0.60560993  0.64514697  0.37662895     0.18200
C2592       C  0.64224137  0.60522708  0.36836073    -0.25800
C2593       C  0.64735832  0.59337788  0.36249638     0.36200
C2594       C  0.64957870  0.59289335  0.34845390    -0.19800
C2595       C  0.64654354  0.60422123  0.34058240    -0.25100
C2596       C  0.64161175  0.61611557  0.34648228     0.27600
H2597       H  0.64052601  0.60565926  0.37911864     0.13400
N2598       N  0.65015045  0.58180041  0.37071152    -0.82300
H2599       H  0.64833245  0.60388337  0.32983320     0.18200
N2600       N  0.63912287  0.62783736  0.33837887    -0.80900
H2601       H  0.64802065  0.58382381  0.38081140     0.33900
H2602       H  0.64359438  0.57413078  0.36775560     0.38400
H2603       H  0.64151536  0.62594349  0.32831245     0.33800
H2604       H  0.62880091  0.62981107  0.33870846     0.30500
H2605       H  0.60122004  0.62420288  0.36783834     0.33800
H2606       H  0.61135308  0.61998145  0.35503234     0.30500
H2607       H  0.64725519  0.66964084  0.37349587     0.38400
H2608       H  0.65884842  0.65810922  0.37760545     0.33900
C2609       C  0.26276818  0.04496144  0.37436121    -0.19900
C2610       C  0.27677190  0.04677697  0.37271629     0.36300
C2611       C  0.28492017  0.03568612  0.36958521    -0.25900
C2612       C  0.27938586  0.02287669  0.36741212     0.02800
C2613       C  0.26534068  0.02109105  0.36878982     0.27600
C2614       C  0.25718437  0.03215521  0.37231018    -0.25000
N2615       N  0.28264931  0.05994075  0.37395482    -0.82400
H2616       H  0.29568793  0.03708730  0.36859819     0.13400
C2617       C  0.28843679  0.01175425  0.36294256     0.02700
N2618       N  0.25940475  0.00810837  0.36651126    -0.80900
H2619       H  0.24645509  0.03074682  0.37363105     0.18200
C2620       C  0.28863981  0.99937543  0.36985104    -0.25800
C2621       C  0.29711806  0.98875870  0.36566943     0.36200
C2622       C  0.30585471  0.99074714  0.35463271    -0.19800
C2623       C  0.30577219  0.00321904  0.34796148    -0.25100
C2624       C  0.29703797  0.01358291  0.35178022     0.27600
H2625       H  0.28209455  0.99796549  0.37846199     0.13400
N2626       N  0.29662291  0.97594233  0.37235426    -0.82300
H2627       H  0.31250425  0.00490695  0.33955269     0.18200
N2628       N  0.29672205  0.02591628  0.34419206    -0.80900
H2629       H  0.29306555  0.96888608  0.36542639     0.33900
H2630       H  0.28965586  0.97615580  0.38024362     0.38400
H2631       H  0.30372666  0.02568956  0.33633620     0.33800
H2632       H  0.28722863  0.02665886  0.33974409     0.30500
H2633       H  0.24900311  0.00847176  0.36804664     0.33800
H2634       H  0.26089219  0.00568303  0.35638779     0.30500
H2635       H  0.27872407  0.06591813  0.36624076     0.38400
H2636       H  0.29305088  0.05954767  0.37241880     0.33900
C2637       C  0.35976137  0.97341962  0.26666751    -0.19900
C2638       C  0.34853396  0.97633633  0.25843843     0.36300
C2639       C  0.35032100  0.98379148  0.24658015    -0.25900
C2640       C  0.36307393  0.98828235  0.24260922     0.02800
C2641       C  0.37439834  0.98491992  0.25043645     0.27600
C2642       C  0.37264131  0.97746349  0.26242005    -0.25000
N2643       N  0.33533101  0.97169485  0.26214521    -0.82400
H2644       H  0.34168437  0.98621506  0.24039329     0.13400
C2645       C  0.36412486  0.99630284  0.23004050     0.02700
N2646       N  0.38755954  0.98920458  0.24624868    -0.80900
H2647       H  0.38125881  0.97521947  0.26868677     0.18200
C2648       C  0.36625326  0.01025818  0.23069404    -0.25800
C2649       C  0.36474467  0.01845169  0.21917611     0.36200
C2650       C  0.36118149  0.01246868  0.20679018    -0.19800
C2651       C  0.35984239  0.99840237  0.20610539    -0.25100
C2652       C  0.36126282  0.99029026  0.21757145     0.27600
H2653       H  0.36837576  0.01482947  0.24034823     0.13400
N2654       N  0.36615229  0.03280361  0.22019493    -0.82300
H2655       H  0.35737166  0.99370796  0.19659817     0.18200
N2656       N  0.35938886  0.97597239  0.21673008    -0.80900
H2657       H  0.36885123  0.03554640  0.22997446     0.33900
H2658       H  0.35671029  0.03706787  0.21839694     0.38400
H2659       H  0.35718226  0.97311099  0.20686115     0.33800
H2660       H  0.36854229  0.97142619  0.21919985     0.30500
H2661       H  0.39481533  0.98595891  0.25312555     0.33800
H2662       H  0.38971794  0.98442694  0.23713318     0.30500
H2663       H  0.33547868  0.96117999  0.26190607     0.38400
H2664       H  0.32818086  0.97478014  0.25508468     0.33900
C2665       C  0.48876227  0.76818465  0.38758020    -0.19900
C2666       C  0.49350930  0.76605375  0.37437981     0.36300
C2667       C  0.50651565  0.76085938  0.37235224    -0.25900
C2668       C  0.51482977  0.75785840  0.38332844     0.02800
C2669       C  0.51025980  0.76029656  0.39650860     0.27600
C2670       C  0.49727487  0.76540871  0.39849847    -0.25000
N2671       N  0.48502281  0.76867778  0.36306048    -0.82400
H2672       H  0.51005789  0.75896710  0.36221487     0.13400
C2673       C  0.52817631  0.75171339  0.38115355     0.02700
N2674       N  0.51884773  0.75754113  0.40781057    -0.80900
H2675       H  0.49377713  0.76721452  0.40866300     0.18200
C2676       C  0.53960029  0.75992887  0.38115204    -0.25800
C2677       C  0.55257551  0.75430750  0.38114634     0.36200
C2678       C  0.55409097  0.74013174  0.38155313    -0.19800
C2679       C  0.54256047  0.73198055  0.38071546    -0.25100
C2680       C  0.52961050  0.73764215  0.38055921     0.27600
H2681       H  0.53835975  0.77075744  0.38147461     0.13400
N2682       N  0.56416169  0.76295437  0.38078512    -0.82300
H2683       H  0.54357207  0.72113944  0.38087800     0.18200
N2684       N  0.51788987  0.72916875  0.38018185    -0.80900
H2685       H  0.56127033  0.77306778  0.38059748     0.33900
H2686       H  0.56922661  0.76111147  0.37174792     0.38400
H2687       H  0.52067062  0.71904216  0.37959600     0.33800
H2688       H  0.51275379  0.73032892  0.38929214     0.30500
H2689       H  0.51405012  0.76010336  0.41681804     0.33800
H2690       H  0.52048006  0.74715725  0.40816051     0.30500
H2691       H  0.48989800  0.77566683  0.35687453     0.38400
H2692       H  0.48395772  0.75973464  0.35763997     0.33900
C2693       C  0.40524304  0.84207240  0.38057618    -0.19900
C2694       C  0.41338805  0.85315027  0.37681177     0.36300
C2695       C  0.40732607  0.86489382  0.37165452    -0.25900
C2696       C  0.39333852  0.86579578  0.37009714     0.02800
C2697       C  0.38520497  0.85476749  0.37377819     0.27600
C2698       C  0.39122006  0.84307683  0.37908184    -0.25000
N2699       N  0.42773885  0.85256381  0.37844805    -0.82400
H2700       H  0.41352734  0.87340801  0.36881142     0.13400
C2701       C  0.38735526  0.87833868  0.36450670     0.02700
N2702       N  0.37087303  0.85547918  0.37204359    -0.80900
H2703       H  0.38493364  0.83461240  0.38187237     0.18200
C2704       C  0.38269619  0.87846208  0.35120964    -0.25800
C2705       C  0.37719188  0.89020244  0.34546949     0.36200
C2706       C  0.37642778  0.90213875  0.35317437    -0.19800
C2707       C  0.38083297  0.90188721  0.36660496    -0.25100
C2708       C  0.38631590  0.89011525  0.37233141     0.27600
H2709       H  0.38336645  0.86933495  0.34529638     0.13400
N2710       N  0.37211738  0.88994490  0.33194540    -0.82300
H2711       H  0.38017133  0.91096572  0.37258899     0.18200
N2712       N  0.39087101  0.89005277  0.38604397    -0.80900
H2713       H  0.37345990  0.88043348  0.32766840     0.33900
H2714       H  0.36173787  0.89158000  0.33243642     0.38400
H2715       H  0.38948761  0.89951389  0.39041709     0.33800
H2716       H  0.38477940  0.88334172  0.39140635     0.30500
H2717       H  0.36632963  0.84648462  0.37508754     0.33800
H2718       H  0.36724773  0.86298961  0.37844807     0.30500
H2719       H  0.43223480  0.86147103  0.37508883     0.38400
H2720       H  0.42971753  0.85187732  0.38875060     0.33900
C2721       C  0.39892779  0.24561202  0.03931399    -0.19900
C2722       C  0.39945045  0.25983674  0.03955739     0.36300
C2723       C  0.39483870  0.26718305  0.02842214    -0.25900
C2724       C  0.38921051  0.26073569  0.01723727     0.02800
C2725       C  0.38842919  0.24657131  0.01703006     0.27600
C2726       C  0.39336060  0.23914603  0.02804753    -0.25000
N2727       N  0.40429174  0.26682555  0.05123843    -0.82400
H2728       H  0.39533067  0.27807606  0.02857844     0.13400
C2729       C  0.38338615  0.26912437  0.00632114     0.02700
N2730       N  0.38250251  0.23981279  0.00572395    -0.80900
H2731       H  0.39294635  0.22826141  0.02777737     0.18200
C2732       C  0.38824874  0.26806574  0.99308397    -0.25800
C2733       C  0.38309666  0.27628597  0.98276268     0.36200
C2734       C  0.37299431  0.28579621  0.98571989    -0.19800
C2735       C  0.36814442  0.28674657  0.99897379    -0.25100
C2736       C  0.37312239  0.27846425  0.00923980     0.27600
H2737       H  0.39610781  0.26087465  0.99076990     0.13400
N2738       N  0.38790009  0.27468840  0.96927629    -0.82300
H2739       H  0.36045190  0.29405991  0.00141303     0.18200
N2740       N  0.36774459  0.27944256  0.02264662    -0.80900
H2741       H  0.38617542  0.26473156  0.96636795     0.33900
H2742       H  0.39829070  0.27631748  0.96927545     0.38400
H2743       H  0.36030391  0.28685804  0.02315236     0.33800
H2744       H  0.36303534  0.27029813  0.02488011     0.30500
H2745       H  0.38273928  0.22938677  0.00711759     0.33800
H2746       H  0.37235783  0.24255912  0.00534208     0.30500
H2747       H  0.39764049  0.26477581  0.05914011     0.38400
H2748       H  0.40406358  0.27723752  0.04973302     0.33900
C2749       C  0.47428217  0.38160759  0.75080219    -0.19900
C2750       C  0.47273101  0.36911413  0.74428324     0.36300
C2751       C  0.48272033  0.36457019  0.73532405    -0.25900
C2752       C  0.49431502  0.37227445  0.73274891     0.02800
C2753       C  0.49601412  0.38456994  0.73956350     0.27600
C2754       C  0.48601632  0.38914219  0.74841813    -0.25000
N2755       N  0.46078168  0.36130092  0.74621828    -0.82400
H2756       H  0.48119969  0.35517076  0.73003010     0.13400
C2757       C  0.50418747  0.36774034  0.72239601     0.02700
N2758       N  0.50793868  0.39242285  0.73756785    -0.80900
H2759       H  0.48745724  0.39869685  0.75345062     0.18200
C2760       C  0.50729665  0.37630813  0.71156890    -0.25800
C2761       C  0.51603745  0.37222929  0.70119147     0.36200
C2762       C  0.52163935  0.35918391  0.70153546    -0.19800
C2763       C  0.51862115  0.35066092  0.71242235    -0.25100
C2764       C  0.51008644  0.35484285  0.72292048     0.27600
H2765       H  0.50261615  0.38613853  0.71105413     0.13400
N2766       N  0.51855379  0.38099193  0.68995435    -0.82300
H2767       H  0.52290037  0.34063696  0.71268213     0.18200
N2768       N  0.50732069  0.34602574  0.73406298    -0.80900
H2769       H  0.51266788  0.38968024  0.69066608     0.33900
H2770       H  0.52852527  0.38421995  0.69064165     0.38400
H2771       H  0.51237358  0.33687635  0.73288746     0.33800
H2772       H  0.51122176  0.35053193  0.74271526     0.30500
H2773       H  0.50506640  0.40191503  0.73405413     0.33800
H2774       H  0.51259769  0.39368762  0.74690059     0.30500
H2775       H  0.46361758  0.35182644  0.74980572     0.38400
H2776       H  0.45619682  0.35998760  0.73685470     0.33900
C2777       C  0.39982221  0.38336117  0.83563256    -0.19900
C2778       C  0.39604233  0.39155230  0.84668163     0.36300
C2779       C  0.39100268  0.38552652  0.85850312    -0.25900
C2780       C  0.38969873  0.37153789  0.85960219     0.02800
C2781       C  0.39333813  0.36334093  0.84864631     0.27600
C2782       C  0.39839682  0.36931478  0.83680674    -0.25000
N2783       N  0.39760832  0.40591232  0.84605473    -0.82400
H2784       H  0.38817012  0.39175946  0.86698394     0.13400
C2785       C  0.38446473  0.36563317  0.87231686     0.02700
N2786       N  0.39180055  0.34898969  0.84958170    -0.80900
H2787       H  0.40113666  0.36295190  0.82840276     0.18200
C2788       C  0.37084132  0.36213682  0.87323750    -0.25800
C2789       C  0.36544357  0.35694068  0.88523970     0.36200
C2790       C  0.37376471  0.35519671  0.89659129    -0.19800
C2791       C  0.38750000  0.35838012  0.89555461    -0.25100
C2792       C  0.39292455  0.36364076  0.88352317     0.27600
H2793       H  0.36434919  0.36349807  0.86459700     0.13400
N2794       N  0.35156531  0.35310332  0.88574396    -0.82300
H2795       H  0.39394541  0.35699223  0.90422230     0.18200
N2796       N  0.40693917  0.36709657  0.88265050    -0.80900
H2797       H  0.34991767  0.34585018  0.87831929     0.33900
H2798       H  0.34575591  0.36155026  0.88339871     0.38400
H2799       H  0.41176210  0.36514870  0.89178452     0.33800
H2800       H  0.41135673  0.36075862  0.87551526     0.30500
H2801       H  0.39478088  0.34438436  0.84060925     0.33800
H2802       H  0.39835600  0.34554588  0.85704020     0.30500
H2803       H  0.39416379  0.41042079  0.85491150     0.38400
H2804       H  0.40790814  0.40795834  0.84543429     0.33900
C2805       C  0.14115720  0.29147416  0.98886011    -0.19900
C2806       C  0.13874285  0.29361793  0.97502929     0.36300
C2807       C  0.13375491  0.28304032  0.96714295    -0.25900
C2808       C  0.13082629  0.27043759  0.97280315     0.02800
C2809       C  0.13283883  0.26839612  0.98671370     0.27600
C2810       C  0.13797775  0.27895977  0.99461247    -0.25000
N2811       N  0.14120902  0.30657620  0.96906674    -0.82400
H2812       H  0.13219726  0.28460486  0.95646973     0.13400
C2813       C  0.12573140  0.25954039  0.96392455     0.02700
N2814       N  0.12968701  0.25561801  0.99273367    -0.80900
H2815       H  0.13978237  0.27733499  0.00523536     0.18200
C2816       C  0.13273033  0.24729190  0.96310908    -0.25800
C2817       C  0.12847643  0.23702356  0.95438867     0.36200
C2818       C  0.11713003  0.23904446  0.94615484    -0.19800
C2819       C  0.11012206  0.25130602  0.94703384    -0.25100
C2820       C  0.11421490  0.26150155  0.95588714     0.27600
H2821       H  0.14160515  0.24571349  0.96922251     0.13400
N2822       N  0.13550703  0.22445934  0.95421157    -0.82300
H2823       H  0.10142252  0.25302184  0.94072631     0.18200
N2824       N  0.10668688  0.27382448  0.95679859    -0.80900
H2825       H  0.13527215  0.22044054  0.96393414     0.33900
H2826       H  0.14554629  0.22637088  0.95170291     0.38400
H2827       H  0.09853870  0.27371164  0.95016477     0.33800
H2828       H  0.10265327  0.27437132  0.96650283     0.30500
H2829       H  0.13183782  0.25573484  0.00302335     0.33800
H2830       H  0.11931075  0.25415163  0.99185589     0.30500
H2831       H  0.13458261  0.31342068  0.97352719     0.38400
H2832       H  0.13894011  0.30645659  0.95880203     0.33900
C2833       C  0.22497421  0.35936895  0.99937690    -0.19900
C2834       C  0.22686142  0.36158811  0.98543536     0.36300
C2835       C  0.23994804  0.36158778  0.98004174    -0.25900
C2836       C  0.25116504  0.35973627  0.98832279     0.02800
C2837       C  0.24941074  0.35881878  0.00237113     0.27600
C2838       C  0.23630121  0.35871907  0.00778780    -0.25000
N2839       N  0.21546904  0.36355928  0.97677213    -0.82400
H2840       H  0.24139651  0.36247219  0.96926893     0.13400
C2841       C  0.26434744  0.35677944  0.98200601     0.02700
N2842       N  0.26092372  0.35753767  0.01101037    -0.80900
H2843       H  0.23493682  0.35724160  0.01849920     0.18200
C2844       C  0.27353940  0.36714905  0.97926744    -0.25800
C2845       C  0.28619679  0.36432166  0.97345138     0.36200
C2846       C  0.28956691  0.35087810  0.97027406    -0.19800
C2847       C  0.28018818  0.34062070  0.97283199    -0.25100
C2848       C  0.26764299  0.34342176  0.97864616     0.27600
H2849       H  0.27089429  0.37740141  0.98184533     0.13400
N2850       N  0.29572262  0.37495516  0.97113146    -0.82300
H2851       H  0.28267700  0.33031752  0.97029785     0.18200
N2852       N  0.25815749  0.33275634  0.98108732    -0.80900
H2853       H  0.30398129  0.37323239  0.97739822     0.33900
H2854       H  0.29165838  0.38422383  0.97399213     0.38400
H2855       H  0.26201092  0.32354697  0.97778012     0.33800
H2856       H  0.25687634  0.33187748  0.99148840     0.30500
H2857       H  0.25792217  0.35711928  0.02108736     0.33800
H2858       H  0.26556692  0.34834553  0.00889474     0.30500
H2859       H  0.21073742  0.37246850  0.97974489     0.38400
H2860       H  0.21858368  0.36498585  0.96681935     0.33900
C2861       C  0.05736662  0.38496205  0.23689238    -0.19900
C2862       C  0.05055988  0.37245090  0.23601479     0.36300
C2863       C  0.04041676  0.36921377  0.24548425    -0.25900
C2864       C  0.03702924  0.37804660  0.25598292     0.02800
C2865       C  0.04346775  0.39067774  0.25660112     0.27600
C2866       C  0.05344424  0.39398609  0.24709846    -0.25000
N2867       N  0.05424262  0.36282467  0.22589934    -0.82400
H2868       H  0.03554805  0.35947195  0.24503976     0.13400
C2869       C  0.02755074  0.37366259  0.26687969     0.02700
N2870       N  0.03992242  0.40008304  0.26700284    -0.80900
H2871       H  0.05819937  0.40375029  0.24776932     0.18200
C2872       C  0.03205668  0.37378469  0.28026158    -0.25800
C2873       C  0.02362225  0.36991202  0.29096474     0.36200
C2874       C  0.01033658  0.36565423  0.28830204    -0.19800
C2875       C  0.00575209  0.36554877  0.27493663    -0.25100
C2876       C  0.01424542  0.36942440  0.26418505     0.27600
H2877       H  0.04228312  0.37690405  0.28236691     0.13400
N2878       N  0.02847253  0.37043698  0.30456965    -0.82300
H2879       H  0.99560389  0.36217045  0.27285965     0.18200
N2880       N  0.00941651  0.36906818  0.25057603    -0.80900
H2881       H  0.03846005  0.37372951  0.30481357     0.33900
H2882       H  0.02279394  0.37766148  0.30968720     0.38400
H2883       H  0.99949279  0.36559127  0.25029136     0.33800
H2884       H  0.00927107  0.37895621  0.24698097     0.30500
H2885       H  0.04567190  0.40885904  0.26620463     0.33800
H2886       H  0.02990092  0.40288363  0.26549484     0.30500
H2887       H  0.06401752  0.35958377  0.22801877     0.38400
H2888       H  0.04808765  0.35430929  0.22646282     0.33900
C2889       C  0.12268747  0.38106747  0.14354802    -0.19900
C2890       C  0.12550801  0.36716469  0.14232817     0.36300
C2891       C  0.13015091  0.36200249  0.12992589    -0.25900
C2892       C  0.13203272  0.37043181  0.11874296     0.02800
C2893       C  0.12908390  0.38425343  0.11989139     0.27600
C2894       C  0.12457593  0.38943727  0.13228837    -0.25000
N2895       N  0.12397353  0.35839843  0.15373561    -0.82400
H2896       H  0.13245177  0.35138843  0.12899412     0.13400
C2897       C  0.13727675  0.36477679  0.10589343     0.02700
N2898       N  0.13042670  0.39292172  0.10837323    -0.80900
H2899       H  0.12233739  0.40007104  0.13311756     0.18200
C2900       C  0.12826517  0.35978250  0.09628552    -0.25800
C2901       C  0.13281807  0.35506627  0.08368292     0.36200
C2902       C  0.14677404  0.35523123  0.08066913    -0.19800
C2903       C  0.15573974  0.36009797  0.09045992    -0.25100
C2904       C  0.15115774  0.36482920  0.10300398     0.27600
H2905       H  0.11759772  0.35981918  0.09855051     0.13400
N2906       N  0.12325745  0.35048128  0.07388171    -0.82300
H2907       H  0.16643627  0.36010981  0.08838734     0.18200
N2908       N  0.16057517  0.36951546  0.11290836    -0.80900
H2909       H  0.11347927  0.35084661  0.07776006     0.33900
H2910       H  0.12354948  0.35720553  0.06579009     0.38400
H2911       H  0.17043434  0.36865270  0.10933022     0.33800
H2912       H  0.15885398  0.37977196  0.11441848     0.30500
H2913       H  0.12757767  0.40275036  0.11079676     0.33800
H2914       H  0.14060306  0.39332707  0.10575948     0.30500
H2915       H  0.13095259  0.36139772  0.16099336     0.38400
H2916       H  0.12640374  0.34849824  0.15114893     0.33900
C2917       C  0.15318632  0.71127667  0.47910971    -0.19900
C2918       C  0.13949546  0.71516117  0.47923331     0.36300
C2919       C  0.13524842  0.72553643  0.48794342    -0.25900
C2920       C  0.14437141  0.73197989  0.49654953     0.02800
C2921       C  0.15810977  0.72866564  0.49587381     0.27600
C2922       C  0.16236796  0.71835259  0.48720871    -0.25000
N2923       N  0.12985015  0.70817090  0.47107343    -0.82400
H2924       H  0.12467888  0.72813579  0.48854424     0.13400
C2925       C  0.13926875  0.74085428  0.50741525     0.02700
N2926       N  0.16760834  0.73555379  0.50430269    -0.80900
H2927       H  0.17292181  0.71565306  0.48696944     0.18200
C2928       C  0.13864917  0.73567819  0.52051962    -0.25800
C2929       C  0.13364520  0.74343453  0.53121578     0.36200
C2930       C  0.12920799  0.75670703  0.52876060    -0.19800
C2931       C  0.13013547  0.76201974  0.51568019    -0.25100
C2932       C  0.13505412  0.75416300  0.50493580     0.27600
H2933       H  0.14201318  0.72547025  0.52236773     0.13400
N2934       N  0.13315913  0.73791747  0.54458484    -0.82300
H2935       H  0.12670171  0.77219235  0.51379219     0.18200
N2936       N  0.13568045  0.75956471  0.49153770    -0.80900
H2937       H  0.13672570  0.72802159  0.54465790     0.33900
H2938       H  0.13973652  0.74352807  0.55055697     0.38400
H2939       H  0.13208789  0.76945010  0.49138618     0.33800
H2940       H  0.14581492  0.76000597  0.48873923     0.30500
H2941       H  0.17732694  0.73185795  0.50270583     0.33800
H2942       H  0.16772112  0.74565546  0.50135309     0.30500
H2943       H  0.12925416  0.69827863  0.47461525     0.38400
H2944       H  0.12027248  0.71235342  0.47227076     0.33900
C2945       C  0.00817862  0.62891484  0.20140571    -0.19900
C2946       C  0.00789679  0.61539596  0.20581747     0.36300
C2947       C  0.01696849  0.61115224  0.21586003    -0.25900
C2948       C  0.02638700  0.62010321  0.22135162     0.02800
C2949       C  0.02638712  0.63365610  0.21727979     0.27600
C2950       C  0.01726595  0.63793481  0.20740957    -0.25000
N2951       N  0.99892893  0.60589262  0.19966086    -0.82400
H2952       H  0.01713110  0.60070388  0.21897959     0.13400
C2953       C  0.03715117  0.61499309  0.23028729     0.02700
N2954       N  0.03596674  0.64290309  0.22290858    -0.80900
H2955       H  0.01745393  0.64834685  0.20417829     0.18200
C2956       C  0.04990146  0.61268931  0.22474842    -0.25800
C2957       C  0.06061641  0.60821606  0.23277088     0.36200
C2958       C  0.05853748  0.60604156  0.24667377    -0.19800
C2959       C  0.04579508  0.60854725  0.25226833    -0.25100
C2960       C  0.03501990  0.61292920  0.24415229     0.27600
H2961       H  0.05148225  0.61444074  0.21409769     0.13400
N2962       N  0.07364997  0.60600734  0.22687658    -0.82300
H2963       H  0.04417987  0.60676385  0.26290307     0.18200
N2964       N  0.02192282  0.61516877  0.24986177    -0.80900
H2965       H  0.07346086  0.60798377  0.21654547     0.33900
H2966       H  0.08028203  0.61296442  0.23112940     0.38400
H2967       H  0.02198573  0.61305518  0.26016644     0.33800
H2968       H  0.01974011  0.62541301  0.24889231     0.30500
H2969       H  0.03479710  0.65247958  0.21870581     0.33800
H2970       H  0.03381747  0.64382387  0.23316454     0.30500
H2971       H  0.99996573  0.59640835  0.20410083     0.38400
H2972       H  0.00185623  0.60483467  0.18961002     0.33900
C2973       C  0.12859591  0.46254958  0.22041547    -0.19900
C2974       C  0.12302716  0.47435201  0.21484405     0.36300
C2975       C  0.12487015  0.48672991  0.22147056    -0.25900
C2976       C  0.13236072  0.48763076  0.23342752     0.02800
C2977       C  0.13846655  0.47588643  0.23861380     0.27600
C2978       C  0.13634140  0.46345964  0.23216912    -0.25000
N2979       N  0.11475981  0.47360769  0.20302360    -0.82400
H2980       H  0.11996755  0.49564656  0.21756843     0.13400
C2981       C  0.13263886  0.50065617  0.24094598     0.02700
N2982       N  0.14661097  0.47659471  0.25052405    -0.80900
H2983       H  0.14056074  0.45436583  0.23645864     0.18200
C2984       C  0.12853244  0.50090364  0.25449266    -0.25800
C2985       C  0.12709362  0.51310326  0.26153537     0.36200
C2986       C  0.12948316  0.52536503  0.25479981    -0.19800
C2987       C  0.13395100  0.52514439  0.24139311    -0.25100
C2988       C  0.13581533  0.51292510  0.23448157     0.27600
H2989       H  0.12590337  0.49155535  0.25945686     0.13400
N2990       N  0.12232771  0.51310016  0.27519191    -0.82300
H2991       H  0.13577425  0.53458470  0.23623275     0.18200
N2992       N  0.14071261  0.51292742  0.22086628    -0.80900
H2993       H  0.12026211  0.50328998  0.27839690     0.33900
H2994       H  0.13017817  0.51655209  0.28124784     0.38400
H2995       H  0.14251309  0.52275768  0.21756340     0.33800
H2996       H  0.15000071  0.50799422  0.22083356     0.30500
H2997       H  0.15028823  0.46707408  0.25307464     0.33800
H2998       H  0.15497659  0.48257199  0.24827666     0.30500
H2999       H  0.12100699  0.47105860  0.19495894     0.38400
H3000       H  0.11073507  0.48305170  0.20072650     0.33900
C3001       C  0.12966877  0.60554753  0.33422381    -0.19900
C3002       C  0.14356207  0.60490611  0.33730081     0.36300
C3003       C  0.14844240  0.61102859  0.34911994    -0.25900
C3004       C  0.13984822  0.61795154  0.35794456     0.02800
C3005       C  0.12600415  0.61870157  0.35485452     0.27600
C3006       C  0.12109656  0.61258187  0.34303319    -0.25000
N3007       N  0.15277544  0.59840976  0.32824560    -0.82400
H3008       H  0.15910263  0.61064040  0.35133916     0.13400
C3009       C  0.14554277  0.62454470  0.37023180     0.02700
N3010       N  0.11695075  0.62555348  0.36381850    -0.80900
H3011       H  0.11044835  0.61311901  0.34081140     0.18200
C3012       C  0.14372331  0.63841890  0.37222210    -0.25800
C3013       C  0.14913530  0.64505661  0.38352775     0.36200
C3014       C  0.15644722  0.63763369  0.39324057    -0.19800
C3015       C  0.15836182  0.62376379  0.39112990    -0.25100
C3016       C  0.15297323  0.61715955  0.37981874     0.27600
H3017       H  0.13824350  0.64415725  0.36475381     0.13400
N3018       N  0.14748209  0.65934706  0.38494380    -0.82300
H3019       H  0.16385746  0.61792691  0.39849626     0.18200
N3020       N  0.15486563  0.60292144  0.37813003    -0.80900
H3021       H  0.14177276  0.66325154  0.37702675     0.33900
H3022       H  0.15701617  0.66373362  0.38419767     0.38400
H3023       H  0.16062027  0.59896923  0.38599025     0.33800
H3024       H  0.14540613  0.59835898  0.37875039     0.30500
H3025       H  0.10711996  0.62525212  0.36011230     0.33800
H3026       H  0.11688724  0.62028733  0.37293007     0.30500
H3027       H  0.15283711  0.60392211  0.31928058     0.38400
H3028       H  0.16258158  0.59874064  0.33201644     0.33900
C3029       C  0.38128956  0.70611203  0.49985001    -0.19900
C3030       C  0.38469049  0.71881710  0.50518900     0.36300
C3031       C  0.38932794  0.72909770  0.49658184    -0.25900
C3032       C  0.39064809  0.72691957  0.48269368     0.02800
C3033       C  0.38789533  0.71404886  0.47747403     0.27600
C3034       C  0.38306631  0.70386142  0.48600704    -0.25000
N3035       N  0.38298014  0.72150652  0.51922869    -0.82400
H3036       H  0.39168624  0.73889623  0.50072476     0.13400
C3037       C  0.39532781  0.73800939  0.47377492     0.02700
N3038       N  0.39021258  0.71122768  0.46353395    -0.80900
H3039       H  0.38076723  0.69408822  0.48177256     0.18200
C3040       C  0.40866194  0.74243889  0.47477062    -0.25800
C3041       C  0.41377435  0.75222420  0.46593542     0.36200
C3042       C  0.40552920  0.75756200  0.45566434    -0.19800
C3043       C  0.39191030  0.75380942  0.45527468    -0.25100
C3044       C  0.38669603  0.74413039  0.46428390     0.27600
H3045       H  0.41521022  0.73813209  0.48234330     0.13400
N3046       N  0.42731001  0.75687063  0.46758709    -0.82300
H3047       H  0.38542163  0.75808319  0.44764426     0.18200
N3048       N  0.37263358  0.74074951  0.46403783    -0.80900
H3049       H  0.43373836  0.74857894  0.46685149     0.33900
H3050       H  0.42822227  0.76083539  0.47727950     0.38400
H3051       H  0.36757664  0.74664300  0.45694733     0.33800
H3052       H  0.37171741  0.73080932  0.46080009     0.30500
H3053       H  0.39719693  0.70338872  0.46291608     0.33800
H3054       H  0.38119054  0.70782067  0.45935625     0.30500
H3055       H  0.39229211  0.72444295  0.52311850     0.38400
H3056       H  0.37634135  0.72960198  0.52023057     0.33900
C3057       C  0.23251332  0.63850759  0.47553221    -0.19900
C3058       C  0.24468140  0.64106496  0.46864837     0.36300
C3059       C  0.25695124  0.64026733  0.47567015    -0.25900
C3060       C  0.25740550  0.63648407  0.48930007     0.02800
C3061       C  0.24527493  0.63299260  0.49587869     0.27600
C3062       C  0.23296487  0.63433567  0.48902098    -0.25000
N3063       N  0.24451556  0.64530096  0.45482334    -0.82400
H3064       H  0.26617732  0.64309332  0.47058756     0.13400
C3065       C  0.27044719  0.63731711  0.49676966     0.02700
N3066       N  0.24549569  0.62827778  0.50955362    -0.80900
H3067       H  0.22362338  0.63229162  0.49427920     0.18200
C3068       C  0.27102594  0.64472000  0.50880673    -0.25800
C3069       C  0.28323706  0.64668328  0.51568017     0.36200
C3070       C  0.29524990  0.64147346  0.51020377    -0.19800
C3071       C  0.29471824  0.63400052  0.49824726    -0.25100
C3072       C  0.28243133  0.63163605  0.49161557     0.27600
H3073       H  0.26194388  0.64933644  0.51268037     0.13400
N3074       N  0.28356683  0.65462533  0.52774758    -0.82300
H3075       H  0.30396666  0.63002118  0.49405493     0.18200
N3076       N  0.28209229  0.62355899  0.47963796    -0.80900
H3077       H  0.27402102  0.65848564  0.52990332     0.33900
H3078       H  0.28593897  0.64817734  0.53570163     0.38400
H3079       H  0.29174270  0.62018460  0.47715390     0.33800
H3080       H  0.27634675  0.61500094  0.48176239     0.30500
H3081       H  0.23574994  0.62618232  0.51293297     0.33800
H3082       H  0.25074779  0.61916615  0.50967788     0.30500
H3083       H  0.24157126  0.63702595  0.44906973     0.38400
H3084       H  0.25422083  0.64775904  0.45157523     0.33900
C3085       C  0.47027922  0.61701588  0.73794197    -0.19900
C3086       C  0.48138618  0.62432206  0.73282771     0.36300
C3087       C  0.49091056  0.62974751  0.74184671    -0.25900
C3088       C  0.48954006  0.62798891  0.75580974     0.02800
C3089       C  0.47834507  0.62089915  0.76088156     0.27600
C3090       C  0.46886188  0.61556927  0.75193612    -0.25000
N3091       N  0.48313840  0.62597307  0.71857167    -0.82400
H3092       H  0.49947492  0.63530247  0.73799771     0.13400
C3093       C  0.49972108  0.63363689  0.76519692     0.02700
N3094       N  0.47673005  0.61901395  0.77514156    -0.80900
H3095       H  0.46028565  0.61018496  0.75597893     0.18200
C3096       C  0.49555188  0.64300617  0.77485204    -0.25800
C3097       C  0.50436902  0.64764702  0.78483836     0.36200
C3098       C  0.51790440  0.64318595  0.78492150    -0.19800
C3099       C  0.52211438  0.63386318  0.77516404    -0.25100
C3100       C  0.51313750  0.62899997  0.76532743     0.27600
H3101       H  0.48519665  0.64641741  0.77481323     0.13400
N3102       N  0.49943754  0.65649109  0.79516200    -0.82300
H3103       H  0.53244090  0.63038457  0.77520064     0.18200
N3104       N  0.51751696  0.61923107  0.75561543    -0.80900
H3105       H  0.48930985  0.65884092  0.79358460     0.33900
H3106       H  0.49990512  0.65127775  0.80429133     0.38400
H3107       H  0.52766918  0.61689415  0.75704206     0.33800
H3108       H  0.51211656  0.61036921  0.75736778     0.30500
H3109       H  0.46790128  0.61368701  0.77725010     0.33800
H3110       H  0.48471060  0.61303847  0.77848210     0.30500
H3111       H  0.48485148  0.61644652  0.71446582     0.38400
H3112       H  0.49171912  0.63171182  0.71651791     0.33900
C3113       C  0.40552939  0.53101113  0.73015329    -0.19900
C3114       C  0.40672319  0.51892012  0.72279230     0.36300
C3115       C  0.40609678  0.50651516  0.72964021    -0.25900
C3116       C  0.40449115  0.50602300  0.74364766     0.02800
C3117       C  0.40260029  0.51802463  0.75089644     0.27600
C3118       C  0.40316076  0.53040906  0.74408258    -0.25000
N3119       N  0.40942507  0.51926691  0.70858896    -0.82400
H3120       H  0.40769315  0.49722576  0.72417142     0.13400
C3121       C  0.40702512  0.49320951  0.75082007     0.02700
N3122       N  0.40073491  0.51756960  0.76523169    -0.80900
H3123       H  0.40221146  0.53967731  0.74973458     0.18200
C3124       C  0.41995538  0.49093825  0.75589060    -0.25800
C3125       C  0.42320381  0.47884796  0.76242208     0.36200
C3126       C  0.41325165  0.46880738  0.76397501    -0.19800
C3127       C  0.40017464  0.47123159  0.75918554    -0.25100
C3128       C  0.39699360  0.48333399  0.75248364     0.27600
H3129       H  0.42758593  0.49863232  0.75461934     0.13400
N3130       N  0.43656187  0.47676356  0.76753931    -0.82300
H3131       H  0.39256325  0.46350344  0.76029849     0.18200
N3132       N  0.38375817  0.48553504  0.74713551    -0.80900
H3133       H  0.44268681  0.48506671  0.76545579     0.33900
H3134       H  0.43586189  0.47606051  0.77801087     0.38400
H3135       H  0.37759804  0.47721864  0.74905065     0.33800
H3136       H  0.37953059  0.49365589  0.75230567     0.30500
H3137       H  0.39967887  0.52728578  0.76911069     0.33800
H3138       H  0.39166116  0.51258367  0.76711513     0.30500
H3139       H  0.41893875  0.52355704  0.70723647     0.38400
H3140       H  0.40997882  0.50951054  0.70470699     0.33900
C3141       C  0.40322705  0.60890258  0.64842195    -0.19900
C3142       C  0.40074731  0.60111706  0.63679246     0.36300
C3143       C  0.39516381  0.60729744  0.62530112    -0.25900
C3144       C  0.39204295  0.62106390  0.62521084     0.02800
C3145       C  0.39454727  0.62884341  0.63677714     0.27600
C3146       C  0.40020987  0.62271280  0.64820745    -0.25000
N3147       N  0.40408755  0.58705054  0.63660760    -0.82400
H3148       H  0.39321847  0.60137592  0.61636998     0.13400
C3149       C  0.38581812  0.62718613  0.61307348     0.02700
N3150       N  0.39099748  0.64286419  0.63698082    -0.80900
H3151       H  0.40200954  0.62870390  0.65712025     0.18200
C3152       C  0.37178731  0.62725827  0.61185164    -0.25800
C3153       C  0.36541328  0.63330353  0.60071931     0.36200
C3154       C  0.37330087  0.63934580  0.59043952    -0.19800
C3155       C  0.38741462  0.63913419  0.59174540    -0.25100
C3156       C  0.39373143  0.63311537  0.60291045     0.27600
H3157       H  0.36577494  0.62270620  0.61974366     0.13400
N3158       N  0.35098031  0.63351002  0.60003669    -0.82300
H3159       H  0.39362136  0.64350165  0.58392279     0.18200
N3160       N  0.40816046  0.63276588  0.60384083    -0.80900
H3161       H  0.34791708  0.64354037  0.60081896     0.33900
H3162       H  0.34675607  0.62842096  0.60823225     0.38400
H3163       H  0.41253227  0.63733254  0.59542011     0.33800
H3164       H  0.41099238  0.63852428  0.61215186     0.30500
H3165       H  0.39319158  0.64708526  0.64635134     0.33800
H3166       H  0.39706008  0.64784043  0.62996541     0.30500
H3167       H  0.41453051  0.58625517  0.63755617     0.38400
H3168       H  0.40159717  0.58278984  0.62732936     0.33900
loop_ 
_geom_bond_atom_site_label_1 
_geom_bond_atom_site_label_2 
_geom_bond_distance 
_geom_bond_site_symmetry_2 
_ccdc_geom_bond_type 
N1            N2   1.319       .  A
N1            C5   1.351       .  A
N1           Cu9   2.090       .  S
N2            C3   1.339       .  A
N2           Cu8   2.057       .  S
C3            C4   1.384       .  A
C3            H6   1.082       .  S
C4            C5   1.393       .  A
C4         C3085   1.489       .  S
C5            H7   1.081       .  S
Cu8          N11   2.057       .  S
Cu9          N19   2.092       .  S
Cu10         N12   2.096       .  S
Cu10         N18   2.099       .  S
N11          N12   1.321       .  A
N11          C15   1.341       .  A
N12          C13   1.351       .  A
C13          C14   1.391       .  A
C13          H16   1.082       .  S
C14          C15   1.380       .  A
C14        C3113   1.483       .  S
C15          H17   1.082       .  S
N18          N19   1.326       .  A
N18          C22   1.350       .  A
N19          C20   1.346       .  A
C20          C21   1.385       .  A
C20          H23   1.082       .  S
C21          C22   1.388       .  A
C21        C3141   1.489       .  S
C22          H24   1.082       .  S
N25          N26   1.322       .  A
N25          C29   1.351       .  A
N25         Cu33   2.096       .  S
N26          C27   1.343       .  A
N26         Cu32   2.071       .  S
C27          C28   1.383       .  A
C27          H30   1.082       .  S
C28          C29   1.391       .  A
C28        C3029   1.488       .  S
C29          H31   1.082       .  S
Cu32         N35   2.070       .  S
Cu33         N43   2.097       .  S
Cu34         N36   2.090       .  S
Cu34         N42   2.091       .  S
N35          N36   1.322       .  A
N35          C39   1.344       .  A
N36          C37   1.349       .  A
C37          C38   1.389       .  A
C37          H40   1.081       .  S
C38          C39   1.382       .  A
C38        C3070   1.483       .  S
C39          H41   1.082       .  S
N42          N43   1.323       .  A
N42          C46   1.347       .  A
N43          C44   1.348       .  A
C44          C45   1.392       .  A
C44          H47   1.081       .  S
C45          C46   1.391       .  A
C45        C3154   1.500       .  S
C46          H48   1.080       .  S
N49          N50   1.321       .  A
N49          C53   1.353       .  A
N49         Cu57   2.104       .  S
N50          C51   1.341       .  A
N50         Cu56   2.054       .  S
C51          C52   1.379       .  A
C51          H54   1.082       .  S
C52          C53   1.392       .  A
C52        C2958   1.483       .  S
C53          H55   1.082       .  S
Cu56         N59   2.054       .  S
Cu57         N67   2.106       .  S
Cu58         N60   2.102       .  S
Cu58         N66   2.104       .  S
N59          N60   1.321       .  A
N59          C63   1.342       .  A
N60          C61   1.351       .  A
C61          C62   1.392       .  A
C61          H64   1.081       .  S
C62          C63   1.379       .  A
C62        C2986   1.483       .  S
C63          H65   1.082       .  S
N66          N67   1.326       .  A
N66          C70   1.349       .  A
N67          C68   1.350       .  A
C68          C69   1.390       .  A
C68          H71   1.082       .  S
C69          C70   1.390       .  A
C69        C3001   1.499       .  S
C70          H72   1.081       .  S
N73          N74   1.322       .  A
N73          C77   1.352       .  A
N73         Cu81   2.099       .  S
N74          C75   1.341       .  A
N74         Cu80   2.068       .  S
C75          C76   1.383       .  A
C75          H78   1.082       .  S
C76          C77   1.393       .  A
C76        C2917   1.491       .  S
C77          H79   1.082       .  S
Cu80         N83   2.068       .  S
Cu81         N91   2.101       .  S
Cu82         N84   2.090       .  S
Cu82         N90   2.092       .  S
N83          N84   1.321       .  A
N83          C87   1.344       .  A
N84          C85   1.350       .  A
C85          C86   1.391       .  A
C85          H88   1.081       .  S
C86          C87   1.383       .  A
C86        C3057   1.485       .  S
C87          H89   1.082       .  S
N90          N91   1.325       .  A
N90          C94   1.347       .  A
N91          C92   1.349       .  A
C92          C93   1.392       .  A
C92          H95   1.081       .  S
C93          C94   1.389       .  A
C93        C3014   1.498       .  S
C94          H96   1.082       .  S
N97          N98   1.320       .  A
N97         C101   1.353       .  A
N97        Cu105   2.108       .  S
N98          C99   1.342       .  A
N98        Cu104   2.068       .  S
C99         C100   1.388       .  A
C99         H102   1.081       .  S
C100        C101   1.399       .  A
C100       C2861   1.505       .  S
C101        H103   1.080       .  S
Cu104       N107   2.067       .  S
Cu105       N115   2.110       .  S
Cu106       N108   2.094       .  S
Cu106       N114   2.095       .  S
N107        N108   1.321       .  A
N107        C111   1.343       .  A
N108        C109   1.351       .  A
C109        C110   1.390       .  A
C109        H112   1.082       .  S
C110        C111   1.381       .  A
C110       C2973   1.483       .  S
C111        H113   1.082       .  S
N114        N115   1.326       .  A
N114        C118   1.347       .  A
N115        C116   1.351       .  A
C116        C117   1.390       .  A
C116        H119   1.082       .  S
C117        C118   1.386       .  A
C117       C2889   1.494       .  S
C118        H120   1.082       .  S
N121        N122   1.321       .  A
N121        C125   1.348       .  A
N121       Cu129   2.083       .  S
N122        C123   1.342   1_554  A
N122       Cu128   2.064       .  S
C123        C124   1.383       .  A
C123        H126   1.082       .  S
C124        C125   1.388   1_556  A
C124       C2805   1.482       .  S
C125        H127   1.082       .  S
Cu128       N131   2.064       .  S
Cu129       N139   2.085       .  S
Cu130       N132   2.100       .  S
Cu130       N138   2.102       .  S
N131        N132   1.321       .  A
N131        C135   1.342   1_554  A
N132        C133   1.351       .  A
C133        C134   1.393       .  A
C133        H136   1.082       .  S
C134        C135   1.383   1_554  A
C134       C2833   1.489   1_554  S
C135        H137   1.082       .  S
N138        N139   1.324       .  A
N138        C142   1.348       .  A
N139        C140   1.348       .  A
C140        C141   1.389       .  A
C140        H143   1.081       .  S
C141        C142   1.391       .  A
C141       C2902   1.498       .  S
C142        H144   1.082       .  S
N145        N146   1.321       .  A
N145        C149   1.352       .  A
N145       Cu153   2.098       .  S
N146        C147   1.341       .  A
N146       Cu152   2.058       .  S
C147        C148   1.381       .  A
C147        H150   1.082       .  S
C148        C149   1.393       .  A
C148       C2749   1.486       .  S
C149        H151   1.082       .  S
Cu152       N155   2.058       .  S
Cu153       N163   2.100       .  S
Cu154       N156   2.089       .  S
Cu154       N162   2.091       .  S
N155        N156   1.320       .  A
N155        C159   1.341       .  A
N156        C157   1.350       .  A
C157        C158   1.390       .  A
C157        H160   1.082       .  S
C158        C159   1.382       .  A
C158       C3126   1.483       .  S
C159        H161   1.082       .  S
N162        N163   1.325       .  A
N162        C166   1.347       .  A
N163        C164   1.349       .  A
C164        C165   1.390       .  A
C164        H167   1.082       .  S
C165        C166   1.389       .  A
C165       C2777   1.496       .  S
C166        H168   1.081       .  S
N169        N170   1.321       .  A
N169        C173   1.351       .  A
N169       Cu177   2.094       .  S
N170        C171   1.339       .  A
N170       Cu176   2.053       .  S
C171        C172   1.382       .  A
C171        H174   1.082       .  S
C172        C173   1.393       .  A
C172       C2734   1.486       .  S
C173        H175   1.082       .  S
Cu176       N179   2.054       .  S
Cu177       N187   2.096       .  S
Cu178       N180   2.088       .  S
Cu178       N186   2.090       .  S
N179        N180   1.319       .  A
N179        C183   1.340       .  A
N180        C181   1.351       .  A
C181        C182   1.391       .  A
C181        H184   1.082       .  S
C182        C183   1.382       .  A
C182       C2846   1.484       .  S
C183        H185   1.082       .  S
N186        N187   1.326       .  A
N186        C190   1.345       .  A
N187        C188   1.349       .  A
C188        C189   1.386       .  A
C188        H191   1.082       .  S
C189        C190   1.384       .  A
C189       C2790   1.486       .  S
C190        H192   1.082       .  S
N193        N194   1.320       .  A
N193        C197   1.353       .  A
N193       Cu201   2.105       .  S
N194        C195   1.341       .  A
N194       Cu200   2.054       .  S
C195        C196   1.382       .  A
C195        H198   1.082       .  S
C196        C197   1.395       .  A
C196       C3042   1.490       .  S
C197        H199   1.082       .  S
Cu200       N203   2.054       .  S
Cu201       N211   2.107       .  S
Cu202       N204   2.083       .  S
Cu202       N210   2.086       .  S
N203        N204   1.320       .  A
N203        C207   1.339       .  A
N204        C205   1.350       .  A
C205        C206   1.390       .  A
C205        H208   1.082       .  S
C206        C207   1.381       .  A
C206       C2665   1.481       .  S
C207        H209   1.082       .  S
N210        N211   1.326       .  A
N210        C214   1.347       .  A
N211        C212   1.349       .  A
C212        C213   1.388       .  A
C212        H215   1.082       .  S
C213        C214   1.386       .  A
C213       C2693   1.492       .  S
C214        H216   1.082       .  S
N217        N218   1.319       .  A
N217        C221   1.354       .  A
N217       Cu225   2.100       .  S
N218        C219   1.335       .  A
N218       Cu224   2.040       .  S
C219        C220   1.379       .  A
C219        H222   1.082       .  S
C220        C221   1.396       .  A
C220       C2622   1.488       .  S
C221        H223   1.082       .  S
Cu224       N227   2.040       .  S
Cu225       N235   2.104       .  S
Cu226       N228   2.103       .  S
Cu226       N234   2.108       .  S
N227        N228   1.318       .  A
N227        C231   1.338       .  A
N228        C229   1.354       .  A
C229        C230   1.396       .  A
C229        H232   1.082       .  S
C230        C231   1.379       .  A
C230       C2637   1.486       .  S
C231        H233   1.082       .  S
N234        N235   1.329       .  A
N234        C238   1.348       .  A
N235        C236   1.349       .  A
C236        C237   1.386       .  A
C236        H239   1.082       .  S
C237        C238   1.387       .  A
C237       C2706   1.492       .  S
C238        H240   1.082       .  S
N241        N242   1.321       .  A
N241        C245   1.350       .  A
N241       Cu249   2.091       .  S
N242        C243   1.341       .  A
N242       Cu248   2.057       .  S
C243        C244   1.380       .  A
C243        H246   1.082       .  S
C244        C245   1.389       .  A
C244       C2553   1.479       .  S
C245        H247   1.082       .  S
Cu248       N251   2.057       .  S
Cu249       N259   2.093       .  S
Cu250       N252   2.091       .  S
Cu250       N258   2.093       .  S
N251        N252   1.320       .  A
N251        C255   1.342       .  A
N252        C253   1.348       .  A
C253        C254   1.392       .  A
C253        H256   1.082       .  S
C254        C255   1.385       .  A
C254       C2678   1.489       .  S
C255        H257   1.081       .  S
N258        N259   1.325       .  A
N258        C262   1.349       .  A
N259        C260   1.347       .  A
C260        C261   1.387       .  A
C260        H263   1.081       .  S
C261        C262   1.387       .  A
C261       C2581   1.492       .  S
C262        H264   1.082       .  S
N265        N266   1.320       .  A
N265        C269   1.349       .  A
N265       Cu273   2.080       .  S
N266        C267   1.341       .  A
N266       Cu272   2.056       .  S
C267        C268   1.382       .  A
C267        H270   1.082       .  S
C268        C269   1.387       .  A
C268       C2510   1.479       .  S
C269        H271   1.082       .  S
Cu272       N275   2.055       .  S
Cu273       N283   2.083       .  S
Cu274       N276   2.096       .  S
Cu274       N282   2.098       .  S
N275        N276   1.321       .  A
N275        C279   1.339       .  A
N276        C277   1.351       .  A
C277        C278   1.393       .  A
C277        H280   1.082       .  S
C278        C279   1.382       .  A
C278       C2525   1.486       .  S
C279        H281   1.082       .  S
N282        N283   1.325       .  A
N282        C286   1.349       .  A
N283        C284   1.346       .  A
C284        C285   1.383       .  A
C284        H287   1.082       .  S
C285        C286   1.387       .  A
C285       C2594   1.485       .  S
C286        H288   1.082       .  S
N289        N290   1.321       .  A
N289        C293   1.351       .  A
N289       Cu297   2.092       .  S
N290        C291   1.340       .  A
N290       Cu296   2.054       .  S
C291        C292   1.379       .  A
C291        H294   1.082       .  S
C292        C293   1.389       .  A
C292       C2454   1.478       .  S
C293        H295   1.082       .  S
Cu296       N299   2.055       .  S
Cu297       N307   2.094       .  S
Cu298       N300   2.095       .  S
Cu298       N306   2.098       .  S
N299        N300   1.320       .  A
N299        C303   1.339       .  A
N300        C301   1.352       .  A
C301        C302   1.393       .  A
C301        H304   1.082       .  S
C302        C303   1.382       .  A
C302       C2650   1.488       .  S
C303        H305   1.082       .  S
N306        N307   1.326       .  A
N306        C310   1.348       .  A
N307        C308   1.347       .  A
C308        C309   1.385       .  A
C308        H311   1.082       .  S
C309        C310   1.386       .  A
C309       C2469   1.488       .  S
C310        H312   1.082       .  S
N313        N314   1.320       .  A
N313        C317   1.349       .  A
N313       Cu321   2.087       .  S
N314        C315   1.341       .  A
N314       Cu320   2.060       .  S
C315        C316   1.384       .  A
C315        H318   1.081       .  S
C316        C317   1.391       .  A
C316       C2721   1.487       .  S
C317        H319   1.082       .  S
Cu320       N323   2.060       .  S
Cu321       N331   2.089       .  S
Cu322       N324   2.087       .  S
Cu322       N330   2.089       .  S
N323        N324   1.321       .  A
N323        C327   1.341       .  A
N324        C325   1.350       .  A
C325        C326   1.389       .  A
C325        H328   1.082       .  S
C326        C327   1.382       .  A
C326       C2413   1.482       .  S
C327        H329   1.082       .  S
N330        N331   1.325       .  A
N330        C334   1.347       .  A
N331        C332   1.347       .  A
C332        C333   1.386       .  A
C332        H335   1.082       .  S
C333        C334   1.386       .  A
C333       C2482   1.487       .  S
C334        H336   1.082       .  S
N337        N338   1.322       .  A
N337        C341   1.352       .  A
N337       Cu345   2.100       .  S
N338        C339   1.340       .  A
N338       Cu344   2.058       .  S
C339        C340   1.380       .  A
C339        H342   1.082       .  S
C340        C341   1.391       .  A
C340       C2357   1.483       .  S
C341        H343   1.082       .  S
Cu344       N347   2.057       .  S
Cu345       N355   2.102       .  S
Cu346       N348   2.080       .  S
Cu346       N354   2.082       .  S
N347        N348   1.320       .  A
N347        C351   1.342       .  A
N348        C349   1.348       .  A
C349        C350   1.386       .  A
C349        H352   1.082       .  S
C350        C351   1.380       .  A
C350       C2426   1.473       .  S
C351        H353   1.082       .  S
N354        N355   1.324       .  A
N354        C358   1.344       .  A
N355        C356   1.350       .  A
C356        C357   1.392       .  A
C356        H359   1.081       .  S
C357        C358   1.386       .  A
C357       C2385   1.496       .  S
C358        H360   1.082       .  S
N361        N362   1.320       .  A
N361        C365   1.349       .  A
N361       Cu369   2.093       .  S
N362        C363   1.342       .  A
N362       Cu368   2.055       .  S
C363        C364   1.380       .  A
C363        H366   1.082       .  S
C364        C365   1.391       .  A
C364       C2342   1.483       .  S
C365        H367   1.082       .  S
Cu368       N371   2.055       .  S
Cu369       N379   2.095       .  S
Cu370       N372   2.090       .  S
Cu370       N378   2.092       .  S
N371        N372   1.320       .  A
N371        C375   1.339       .  A
N372        C373   1.351       .  A
C373        C374   1.393       .  A
C373        H376   1.081       .  S
C374        C375   1.382       .  A
C374       C2538   1.487       .  S
C375        H377   1.082       .  S
N378        N379   1.325       .  A
N378        C382   1.348       .  A
N379        C380   1.347       .  A
C380        C381   1.388       .  A
C380        H383   1.082       .  S
C381        C382   1.388       .  A
C381       C2398   1.493       .  S
C382        H384   1.081       .  S
N385        N386   1.321       .  A
N385        C389   1.350       .  A
N385       Cu393   2.092       .  S
N386        C387   1.339       .  A
N386       Cu392   2.045       .  S
C387        C388   1.376       .  A
C387        H390   1.082       .  S
C388        C389   1.389       .  A
C388       C2245   1.474       .  S
C389        H391   1.082       .  S
Cu392       N395   2.045       .  S
Cu393       N403   2.094       .  S
Cu394       N396   2.091       .  S
Cu394       N402   2.094       .  S
N395        N396   1.319       .  A
N395        C399   1.339       .  A
N396        C397   1.349       .  A
C397        C398   1.392       .  A
C397        H400   1.081       .  S
C398        C399   1.381       .  A
C398       C2273   1.485       .  S
C399        H401   1.082       .  S
N402        N403   1.325       .  A
N402        C406   1.347       .  A
N403        C404   1.348       .  A
C404        C405   1.389       .  A
C404        H407   1.082       .  S
C405        C406   1.389       .  A
C405       C2314   1.495       .  S
C406        H408   1.081       .  S
N409        N410   1.322       .  A
N409        C413   1.352       .  A
N409       Cu417   2.101       .  S
N410        C411   1.343       .  A
N410       Cu416   2.067       .  S
C411        C412   1.382       .  A
C411        H414   1.082       .  S
C412        C413   1.390       .  A
C412       C2189   1.485       .  S
C413        H415   1.082       .  S
Cu416       N419   2.067       .  S
Cu417       N427   2.102       .  S
Cu418       N420   2.085       .  S
Cu418       N426   2.087       .  S
N419        N420   1.320       .  A
N419        C423   1.340       .  A
N420        C421   1.350       .  A
C421        C422   1.392       .  A
C421        H424   1.081       .  S
C422        C423   1.385       .  A
C422       C2230   1.491       .  S
C423        H425   1.082       .  S
N426        N427   1.326       .  A
N426        C430   1.347       .  A
N427        C428   1.349       .  A
C428        C429   1.387       .  A
C428        H431   1.082       .  S
C429        C430   1.385       .  A
C429       C2301   1.487       .  S
C430        H432   1.082       .  S
N433        N434   1.320       .  A
N433        C437   1.352       .  A
N433       Cu441   2.100       .  S
N434        C435   1.339       .  A
N434       Cu440   2.046       .  S
C435        C436   1.379       .  A
C435        H438   1.082       .  S
C436        C437   1.393       .  A
C436       C2609   1.484       .  S
C437        H439   1.082       .  S
Cu440       N443   2.046       .  S
Cu441       N451   2.103       .  S
Cu442       N444   2.095       .  S
Cu442       N450   2.098       .  S
N443        N444   1.319       .  A
N443        C447   1.338       .  A
N444        C445   1.351       .  A
C445        C446   1.395       .  A
C445        H448   1.082       .  S
C446        C447   1.382       .  A
C446       C2286   1.487       .  S
C447        H449   1.081       .  S
N450        N451   1.327       .  A
N450        C454   1.348       .  A
N451        C452   1.349       .  A
C452        C453   1.388       .  A
C452        H455   1.082       .  S
C453        C454   1.386       .  A
C453       C2174   1.492       .  S
C454        H456   1.082       .  S
N457        N458   1.320       .  A
N457        C461   1.355       .  A
N457       Cu465   2.105       .  S
N458        C459   1.337       .  A
N458       Cu464   2.051       .  S
C459        C460   1.382       .  A
C459        H462   1.081       .  S
C460        C461   1.398       .  A
C460       C2118   1.495       .  S
C461        H463   1.082       .  S
Cu464       N467   2.051       .  S
Cu465       N475   2.108       .  S
Cu466       N468   2.097       .  S
Cu466       N474   2.100       .  S
N467        N468   1.319       .  A
N467        C471   1.341       .  A
N468        C469   1.351       .  A
C469        C470   1.392       .  A
C469        H472   1.082       .  S
C470        C471   1.380       .  A
C470       C2146   1.482       .  S
C471        H473   1.082       .  S
N474        N475   1.327       .  A
N474        C478   1.348       .  A
N475        C476   1.349       .  A
C476        C477   1.390       .  A
C476        H479   1.081       .  S
C477        C478   1.388       .  A
C477       C2161   1.497       .  S
C478        H480   1.082       .  S
N481        N482   1.321       .  A
N481        C485   1.350       .  A
N481       Cu489   2.094       .  S
N482        C483   1.341       .  A
N482       Cu488   2.058       .  S
C483        C484   1.380       .  A
C483        H486   1.082       .  S
C484        C485   1.390       .  A
C484       C2021   1.482       .  S
C485        H487   1.082       .  S
Cu488       N491   2.058       .  S
Cu489       N499   2.096       .  S
Cu490       N492   2.091       .  S
Cu490       N498   2.093       .  S
N491        N492   1.320       .  A
N491        C495   1.340       .  A
N492        C493   1.351       .  A
C493        C494   1.393       .  A
C493        H496   1.081       .  S
C494        C495   1.384       .  A
C494       C2049   1.489       .  S
C495        H497   1.082       .  S
N498        N499   1.325       .  A
N498        C502   1.346       .  A
N499        C500   1.349       .  A
C500        C501   1.389       .  A
C500        H503   1.082       .  S
C501        C502   1.387       .  A
C501       C2077   1.494       .  S
C502        H504   1.081       .  S
N505        N506   1.321       .  A
N505        C509   1.350       .  A
N505       Cu513   2.093       .  S
N506        C507   1.342       .  A
N506       Cu512   2.060       .  S
C507        C508   1.382       .  A
C507        H510   1.082       .  S
C508        C509   1.391       .  A
C508       C2762   1.484       .  S
C509        H511   1.081       .  S
Cu512       N515   2.061       .  S
Cu513       N523   2.094       .  S
Cu514       N516   2.093       .  S
Cu514       N522   2.094       .  S
N515        N516   1.322       .  A
N515        C519   1.341       .  A
N516        C517   1.351       .  A
C517        C518   1.387       .  A
C517        H520   1.082       .  S
C518        C519   1.378       .  A
C518       C2217   1.476       .  S
C519        H521   1.082       .  S
N522        N523   1.325       .  A
N522        C526   1.349       .  A
N523        C524   1.347       .  A
C524        C525   1.389       .  A
C524        H527   1.081       .  S
C525        C526   1.388       .  A
C525       C2090   1.494       .  S
C526        H528   1.082       .  S
N529        N530   1.319       .  A
N529        C533   1.351       .  A
N529       Cu537   2.092       .  S
N530        C531   1.339       .  A
N530       Cu536   2.054       .  S
C531        C532   1.383       .  A
C531        H534   1.082       .  S
C532        C533   1.394       .  A
C532       C2497   1.489       .  S
C533        H535   1.081       .  S
Cu536       N539   2.053       .  S
Cu537       N547   2.095       .  S
Cu538       N540   2.102       .  S
Cu538       N546   2.105       .  S
N539        N540   1.321       .  A
N539        C543   1.339       .  A
N540        C541   1.353       .  A
C541        C542   1.393       .  A
C541        H544   1.082       .  S
C542        C543   1.381       .  A
C542       C2062   1.486       .  S
C543        H545   1.082       .  S
N546        N547   1.326       .  A
N546        C550   1.349       .  A
N547        C548   1.347       .  A
C548        C549   1.388       .  A
C548        H551   1.081       .  S
C549        C550   1.389       .  A
C549       C1993   1.496       .  S
C550        H552   1.082       .  S
N553        N554   1.321       .  A
N553        C557   1.352       .  A
N553       Cu561   2.101       .  S
N554        C555   1.344   1_655  A
N554       Cu560   2.068       .  S
C555        C556   1.383       .  A
C555        H558   1.082       .  S
C556        C557   1.392   1_455  A
C556       C2874   1.490       .  S
C557        H559   1.082       .  S
Cu560       N563   2.067       .  S
Cu561       N571   2.102       .  S
Cu562       N564   2.092       .  S
Cu562       N570   2.094       .  S
N563        N564   1.322       .  A
N563        C567   1.342       .  A
N564        C565   1.351       .  A
C565        C566   1.390       .  A
C565        H568   1.082       .  S
C566        C567   1.382       .  A
C566       C2133   1.484       .  S
C567        H569   1.082   1_655  S
N570        N571   1.325       .  A
N570        C574   1.348       .  A
N571        C572   1.349       .  A
C572        C573   1.390       .  A
C572        H575   1.082       .  S
C573        C574   1.390       .  A
C573       C2006   1.498       .  S
C574        H576   1.081       .  S
N577        N578   1.321       .  A
N577        C581   1.352       .  A
N577       Cu585   2.096       .  S
N578        C579   1.341       .  A
N578       Cu584   2.061       .  S
C579        C580   1.381       .  A
C579        H582   1.082       .  S
C580        C581   1.390       .  A
C580       C1909   1.484       .  S
C581        H583   1.082       .  S
Cu584       N587   2.061       .  S
Cu585       N595   2.098       .  S
Cu586       N588   2.083       .  S
Cu586       N594   2.085       .  S
N587        N588   1.321       .  A
N587        C591   1.341       .  A
N588        C589   1.349       .  A
C589        C590   1.386       .  A
C589        H592   1.082       .  S
C590        C591   1.379       .  A
C590       C1937   1.474       .  S
C591        H593   1.082       .  S
N594        N595   1.325       .  A
N594        C598   1.347       .  A
N595        C596   1.348       .  A
C596        C597   1.388       .  A
C596        H599   1.082       .  S
C597        C598   1.385       .  A
C597       C1978   1.490       .  S
C598        H600   1.082       .  S
N601        N602   1.321       .  A
N601        C605   1.350       .  A
N601       Cu609   2.091       .  S
N602        C603   1.341       .  A
N602       Cu608   2.055       .  S
C603        C604   1.379       .  A
C603        H606   1.082       .  S
C604        C605   1.389       .  A
C604       C2034   1.478       .  S
C605        H607   1.082       .  S
Cu608       N611   2.056       .  S
Cu609       N619   2.094       .  S
Cu610       N612   2.103       .  S
Cu610       N618   2.104       .  S
N611        N612   1.320       .  A
N611        C615   1.340       .  A
N612        C613   1.354       .  A
C613        C614   1.395       .  A
C613        H616   1.082       .  S
C614        C615   1.381       .  A
C614       C1881   1.489       .  S
C615        H617   1.082       .  S
N618        N619   1.326       .  A
N618        C622   1.348       .  A
N619        C620   1.348       .  A
C620        C621   1.388       .  A
C620        H623   1.082       .  S
C621        C622   1.389       .  A
C621       C1965   1.495       .  S
C622        H624   1.081       .  S
N625        N626   1.320       .  A
N625        C629   1.349       .  A
N625       Cu633   2.088       .  S
N626        C627   1.339       .  A
N626       Cu632   2.052       .  S
C627        C628   1.383       .  A
C627        H630   1.082       .  S
C628        C629   1.393       .  A
C628       C2258   1.488       .  S
C629        H631   1.081       .  S
Cu632       N635   2.053       .  S
Cu633       N643   2.090       .  S
Cu634       N636   2.079       .  S
Cu634       N642   2.081       .  S
N635        N636   1.320       .  A
N635        C639   1.339       .  A
N636        C637   1.349       .  A
C637        C638   1.389       .  A
C637        H640   1.082       .  S
C638        C639   1.381       .  A
C638       C1825   1.480       .  S
C639        H641   1.082       .  S
N642        N643   1.325       .  A
N642        C646   1.345       .  A
N643        C644   1.347       .  A
C644        C645   1.384       .  A
C644        H647   1.082       .  S
C645        C646   1.382       .  A
C645       C1853   1.480       .  S
C646        H648   1.082       .  S
N649        N650   1.321       .  A
N649        C653   1.349       .  A
N649       Cu657   2.088       .  S
N650        C651   1.343       .  A
N650       Cu656   2.064       .  S
C651        C652   1.383       .  A
C651        H654   1.082       .  S
C652        C653   1.388       .  A
C652       C2930   1.483       .  S
C653        H655   1.082       .  S
Cu656       N659   2.064       .  S
Cu657       N667   2.089       .  S
Cu658       N660   2.079       .  S
Cu658       N666   2.080       .  S
N659        N660   1.322       .  A
N659        C663   1.342       .  A
N660        C661   1.347       .  A
C661        C662   1.385       .  A
C661        H664   1.082       .  S
C662        C663   1.379       .  A
C662       C1950   1.474       .  S
C663        H665   1.082       .  S
N666        N667   1.324       .  A
N666        C670   1.346       .  A
N667        C668   1.346       .  A
C668        C669   1.386       .  A
C668        H671   1.082       .  S
C669        C670   1.385       .  A
C669       C1866   1.485       .  S
C670        H672   1.082       .  S
N673        N674   1.323       .  A
N673        C677   1.352       .  A
N673       Cu681   2.109       .  S
N674        C675   1.343       .  A
N674       Cu680   2.065       .  S
C675        C676   1.381       .  A
C675        H678   1.082       .  S
C676        C677   1.392       .  A
C676       C1741   1.487       .  S
C677        H679   1.082       .  S
Cu680       N683   2.064       .  S
Cu681       N691   2.110       .  S
Cu682       N684   2.078       .  S
Cu682       N690   2.080       .  S
N683        N684   1.320       .  A
N683        C687   1.342       .  A
N684        C685   1.348       .  A
C685        C686   1.387       .  A
C685        H688   1.082       .  S
C686        C687   1.382       .  A
C686       C1769   1.478       .  S
C687        H689   1.082       .  S
N690        N691   1.324       .  A
N690        C694   1.344       .  A
N691        C692   1.352       .  A
C692        C693   1.393       .  A
C692        H695   1.082       .  S
C693        C694   1.385       .  A
C693       C1797   1.496       .  S
C694        H696   1.081       .  S
N697        N698   1.322       .  A
N697        C701   1.352       .  A
N697       Cu705   2.101       .  S
N698        C699   1.343       .  A
N698       Cu704   2.070       .  S
C699        C700   1.383       .  A
C699        H702   1.082       .  S
C700        C701   1.391       .  A
C700       C1713   1.487       .  S
C701        H703   1.082       .  S
Cu704       N707   2.071       .  S
Cu705       N715   2.103       .  S
Cu706       N708   2.095       .  S
Cu706       N714   2.096       .  S
N707        N708   1.320       .  A
N707        C711   1.342       .  A
N708        C709   1.351       .  A
C709        C710   1.393       .  A
C709        H712   1.082       .  S
C710        C711   1.387       .  A
C710       C1894   1.494       .  S
C711        H713   1.081       .  S
N714        N715   1.325       .  A
N714        C718   1.348       .  A
N715        C716   1.350       .  A
C716        C717   1.391       .  A
C716        H719   1.081       .  S
C717        C718   1.388       .  A
C717       C1810   1.497       .  S
C718        H720   1.082       .  S
N721        N722   1.320       .  A
N721        C725   1.351       .  A
N721       Cu729   2.091       .  S
N722        C723   1.339       .  A
N722       Cu728   2.056       .  S
C723        C724   1.382       .  A
C723        H726   1.082   1_545  S
C724        C725   1.393       .  A
C724       C1657   1.487       .  S
C725        H727   1.080       .  S
Cu728       N731   2.056       .  S
Cu729       N739   2.093       .  S
Cu730       N732   2.087       .  S
Cu730       N738   2.089       .  S
N731        N732   1.320       .  A
N731        C735   1.340       .  A
N732        C733   1.350       .  A
C733        C734   1.391       .  A
C733        H736   1.082       .  S
C734        C735   1.382       .  A
C734       C1838   1.483       .  S
C735        H737   1.082   1_545  S
N738        N739   1.325       .  A
N738        C742   1.346       .  A
N739        C740   1.347       .  A
C740        C741   1.388       .  A
C740        H743   1.082       .  S
C741        C742   1.388       .  A
C741       C1685   1.492       .  S
C742        H744   1.081       .  S
N745        N746   1.319       .  A
N745        C749   1.350       .  A
N745       Cu753   2.090       .  S
N746        C747   1.339       .  A
N746       Cu752   2.046       .  S
C747        C748   1.382       .  A
C747        H750   1.082       .  S
C748        C749   1.393       .  A
C748       C2818   1.486       .  S
C749        H751   1.081       .  S
Cu752       N755   2.047       .  S
Cu753       N763   2.092       .  S
Cu754       N756   2.092       .  S
Cu754       N762   2.095       .  S
N755        N756   1.320       .  A
N755        C759   1.338       .  A
N756        C757   1.351       .  A
C757        C758   1.391       .  A
C757        H760   1.082       .  S
C758        C759   1.379       .  A
C758       C1782   1.481       .  S
C759        H761   1.082       .  S
N762        N763   1.326       .  A
N762        C766   1.348       .  A
N763        C764   1.346       .  A
C764        C765   1.385       .  A
C764        H767   1.082       .  S
C765        C766   1.386       .  A
C765       C1698   1.486       .  S
C766        H768   1.082       .  S
N769        N770   1.321       .  A
N769        C773   1.349       .  A
N769       Cu777   2.081       .  S
N770        C771   1.340       .  A
N770       Cu776   2.059       .  S
C771        C772   1.379       .  A
C771        H774   1.082       .  S
C772        C773   1.388       .  A
C772       C1573   1.478       .  S
C773        H775   1.082       .  S
Cu776       N779   2.060       .  S
Cu777       N787   2.083       .  S
Cu778       N780   2.089       .  S
Cu778       N786   2.091       .  S
N779        N780   1.321       .  A
N779        C783   1.342       .  A
N780        C781   1.350       .  A
C781        C782   1.388       .  A
C781        H784   1.082       .  S
C782        C783   1.381       .  A
C782       C1601   1.481       .  S
C783        H785   1.082       .  S
N786        N787   1.325       .  A
N786        C790   1.346       .  A
N787        C788   1.346       .  A
C788        C789   1.385       .  A
C788        H791   1.082       .  S
C789        C790   1.387       .  A
C789       C1629   1.486       .  S
C790        H792   1.082       .  S
N793        N794   1.319       .  A
N793        C797   1.351       .  A
N793       Cu801   2.083       .  S
N794        C795   1.338       .  A
N794       Cu800   2.053       .  S
C795        C796   1.381       .  A
C795        H798   1.082       .  S
C796        C797   1.392       .  A
C796       C2566   1.485       .  S
C797        H799   1.082       .  S
Cu800       N803   2.052       .  S
Cu801       N811   2.085       .  S
Cu802       N804   2.093       .  S
Cu802       N810   2.095       .  S
N803        N804   1.320       .  A
N803        C807   1.340       .  A
N804        C805   1.352       .  A
C805        C806   1.393       .  A
C805        H808   1.082       .  S
C806        C807   1.379       .  A
C806       C1545   1.483       .  S
C807        H809   1.082       .  S
N810        N811   1.326       .  A
N810        C814   1.347       .  A
N811        C812   1.345       .  A
C812        C813   1.385       .  A
C812        H815   1.082       .  S
C813        C814   1.388       .  A
C813       C1642   1.489       .  S
C814        H816   1.081       .  S
N817        N818   1.321       .  A
N817        C821   1.353       .  A
N817       Cu825   2.103       .  S
N818        C819   1.340       .  A
N818       Cu824   2.064       .  S
C819        C820   1.385       .  A
C819        H822   1.081       .  S
C820        C821   1.397       .  A
C820       C2202   1.498       .  S
C821        H823   1.081       .  S
Cu824       N827   2.064       .  S
Cu825       N835   2.104       .  S
Cu826       N828   2.076       .  S
Cu826       N834   2.078       .  S
N827        N828   1.319       .  A
N827        C831   1.342       .  A
N828        C829   1.348       .  A
C829        C830   1.389       .  A
C829        H832   1.082       .  S
C830        C831   1.383       .  A
C830       C1614   1.483       .  S
C831        H833   1.082       .  S
N834        N835   1.325       .  A
N834        C838   1.344       .  A
N835        C836   1.349       .  A
C836        C837   1.389       .  A
C836        H839   1.082       .  S
C837        C838   1.383       .  A
C837       C1517   1.487       .  S
C838        H840   1.082       .  S
N841        N842   1.320       .  A
N841        C845   1.351       .  A
N841       Cu849   2.093       .  S
N842        C843   1.339       .  A
N842       Cu848   2.052       .  S
C843        C844   1.381       .  A
C843        H846   1.082       .  S
C844        C845   1.394       .  A
C844       C2370   1.487       .  S
C845        H847   1.082       .  S
Cu848       N851   2.052       .  S
Cu849       N859   2.095       .  S
Cu850       N852   2.087       .  S
Cu850       N858   2.089       .  S
N851        N852   1.318       .  A
N851        C855   1.339       .  A
N852        C853   1.350       .  A
C853        C854   1.394       .  A
C853        H856   1.082       .  S
C854        C855   1.384       .  A
C854       C1489   1.491       .  S
C855        H857   1.081       .  S
N858        N859   1.326       .  A
N858        C862   1.346       .  A
N859        C860   1.348       .  A
C860        C861   1.385       .  A
C860        H863   1.082       .  S
C861        C862   1.384       .  A
C861       C1530   1.485       .  S
C862        H864   1.082       .  S
N865        N866   1.320       .  A
N865        C869   1.348       .  A
N865       Cu873   2.077       .  S
N866        C867   1.340       .  A
N866       Cu872   2.052       .  S
C867        C868   1.379       .  A
C867        H870   1.082       .  S
C868        C869   1.386       .  A
C868       C1405   1.474       .  S
C869        H871   1.082       .  S
Cu872       N875   2.052       .  S
Cu873       N883   2.080       .  S
Cu874       N876   2.100       .  S
Cu874       N882   2.102       .  S
N875        N876   1.321       .  A
N875        C879   1.340       .  A
N876        C877   1.352       .  A
C877        C878   1.391       .  A
C877        H880   1.082       .  S
C878        C879   1.380       .  A
C878       C1433   1.484       .  S
C879        H881   1.082       .  S
N882        N883   1.325       .  A
N882        C886   1.348       .  A
N883        C884   1.346       .  A
C884        C885   1.384       .  A
C884        H887   1.082       .  S
C885        C886   1.389       .  A
C885       C1461   1.490       .  S
C886        H888   1.081       .  S
N889        N890   1.322       .  A
N889        C893   1.351       .  A
N889       Cu897   2.092       .  S
N890        C891   1.342       .  A
N890       Cu896   2.064       .  S
C891        C892   1.380       .  A
C891        H894   1.082       .  S
C892        C893   1.390       .  A
C892       C1922   1.482       .  S
C893        H895   1.082       .  S
Cu896       N899   2.064       .  S
Cu897       N907   2.093       .  S
Cu898       N900   2.095       .  S
Cu898       N906   2.096       .  S
N899        N900   1.321       .  A
N899        C903   1.343       .  A
N900        C901   1.351       .  A
C901        C902   1.391       .  A
C901        H904   1.082       .  S
C902        C903   1.381       .  A
C902       C1558   1.484       .  S
C903        H905   1.082       .  S
N906        N907   1.325       .  A
N906        C910   1.347       .  A
N907        C908   1.348       .  A
C908        C909   1.388       .  A
C908        H911   1.082       .  S
C909        C910   1.388       .  A
C909       C1474   1.492       .  S
C910        H912   1.082       .  S
N913        N914   1.320       .  A
N913        C917   1.351       .  A
N913       Cu921   2.108       .  S
N914        C915   1.343   1_554  A
N914       Cu920   2.054       .  S
C915        C916   1.385       .  A
C915        H918   1.082       .  S
C916        C917   1.397   1_556  A
C916       C1754   1.496       .  S
C917        H919   1.081       .  S
Cu920       N923   2.053       .  S
Cu921       N931   2.110       .  S
Cu922       N924   2.096       .  S
Cu922       N930   2.098       .  S
N923        N924   1.321       .  A
N923        C927   1.338       .  A
N924        C925   1.353       .  A
C925        C926   1.393       .  A
C925        H928   1.082       .  S
C926        C927   1.380       .  A
C926       C1502   1.485       .  S
C927        H929   1.082   1_554  S
N930        N931   1.326       .  A
N930        C934   1.347       .  A
N931        C932   1.352       .  A
C932        C933   1.392       .  A
C932        H935   1.081       .  S
C933        C934   1.388       .  A
C933       C1377   1.499       .  S
C934        H936   1.082       .  S
N937        N938   1.320       .  A
N937        C941   1.354       .  A
N937       Cu945   2.105       .  S
N938        C939   1.340       .  A
N938       Cu944   2.062       .  S
C939        C940   1.386       .  A
C939        H942   1.081       .  S
C940        C941   1.398       .  A
C940       C2105   1.500       .  S
C941        H943   1.081       .  S
Cu944       N947   2.062       .  S
Cu945       N955   2.107       .  S
Cu946       N948   2.106       .  S
Cu946       N954   2.108       .  S
N947        N948   1.320       .  A
N947        C951   1.342       .  A
N948        C949   1.352       .  A
C949        C950   1.397       .  A
C949        H952   1.081       .  S
C950        C951   1.385       .  A
C950       C1446   1.497       .  S
C951        H953   1.082       .  S
N954        N955   1.326       .  A
N954        C958   1.351       .  A
N955        C956   1.349       .  A
C956        C957   1.389       .  A
C956        H959   1.082       .  S
C957        C958   1.391       .  A
C957       C1390   1.500       .  S
C958        H960   1.081       .  S
N961        N962   1.319       .  A
N961        C965   1.349       .  A
N961       Cu969   2.085       .  S
N962        C963   1.340       .  A
N962       Cu968   2.059       .  S
C963        C964   1.387       .  A
C963        H966   1.081       .  S
C964        C965   1.394       .  A
C964       C1726   1.494       .  S
C965        H967   1.081       .  S
Cu968       N971   2.060       .  S
Cu969       N979   2.086       .  S
Cu970       N972   2.093       .  S
Cu970       N978   2.095       .  S
N971        N972   1.320       .  A
N971        C975   1.340       .  A
N972        C973   1.351       .  A
C973        C974   1.394       .  A
C973        H976   1.080       .  S
C974        C975   1.384       .  A
C974       C1321   1.490       .  S
C975        H977   1.082       .  S
N978        N979   1.324       .  A
N978        C982   1.347       .  A
N979        C980   1.346       .  A
C980        C981   1.388       .  A
C980        H983   1.082       .  S
C981        C982   1.391       .  A
C981       C1349   1.497       .  S
C982        H984   1.081       .  S
N985        N986   1.319       .  A
N985        C989   1.352       .  A
N985       Cu993   2.096       .  S
N986        C987   1.340       .  A
N986       Cu992   2.053       .  S
C987        C988   1.383       .  A
C987        H990   1.081       .  S
C988        C989   1.394       .  A
C988       C3098   1.490       .  S
C989        H991   1.082       .  S
Cu992       N995   2.054       .  S
Cu993      N1003   2.098       .  S
Cu994       N996   2.101       .  S
Cu994      N1002   2.103       .  S
N995        N996   1.321       .  A
N995        C999   1.339       .  A
N996        C997   1.353       .  A
C997        C998   1.393       .  A
C997       H1000   1.081       .  S
C998        C999   1.379       .  A
C998       C1293   1.483       .  S
C999       H1001   1.082       .  S
N1002      N1003   1.326       .  A
N1002      C1006   1.348       .  A
N1003      C1004   1.348       .  A
C1004      C1005   1.388       .  A
C1004      H1007   1.081       .  S
C1005      C1006   1.389       .  A
C1005      C1362   1.496       .  S
C1006      H1008   1.082       .  S
N1009      N1010   1.320       .  A
N1009      C1013   1.350       .  A
N1009     Cu1017   2.089       .  S
N1010      C1011   1.342       .  A
N1010     Cu1016   2.061       .  S
C1011      C1012   1.383       .  A
C1011      H1014   1.082       .  S
C1012      C1013   1.391       .  A
C1012      C2329   1.486       .  S
C1013      H1015   1.082       .  S
Cu1016     N1019   2.061       .  S
Cu1017     N1027   2.091       .  S
Cu1018     N1020   2.092       .  S
Cu1018     N1026   2.094       .  S
N1019      N1020   1.321       .  A
N1019      C1023   1.339       .  A
N1020      C1021   1.353       .  A
C1021      C1022   1.390       .  A
C1021      H1024   1.082       .  S
C1022      C1023   1.380       .  A
C1022      C1334   1.482       .  S
C1023      H1025   1.082       .  S
N1026      N1027   1.326       .  A
N1026      C1030   1.348       .  A
N1027      C1028   1.346       .  A
C1028      C1029   1.385       .  A
C1028      H1031   1.082       .  S
C1029      C1030   1.386       .  A
C1029      C1265   1.487       .  S
C1030      H1032   1.082       .  S
N1033      N1034   1.319       .  A
N1033      C1037   1.352       .  A
N1033     Cu1041   2.096       .  S
N1034      C1035   1.338   1_655  A
N1034     Cu1040   2.043       .  S
C1035      C1036   1.380       .  A
C1035      H1038   1.082       .  S
C1036      C1037   1.394   1_455  A
C1036      C2945   1.486       .  S
C1037      H1039   1.082       .  S
Cu1040     N1043   2.043       .  S
Cu1041     N1051   2.099       .  S
Cu1042     N1044   2.094       .  S
Cu1042     N1050   2.097       .  S
N1043      N1044   1.318       .  A
N1043      C1047   1.338   1_655  A
N1044      C1045   1.351       .  A
C1045      C1046   1.396   1_655  A
C1045      H1048   1.081       .  S
C1046      C1047   1.381       .  A
C1046      C1237   1.489       .  S
C1047      H1049   1.082       .  S
N1050      N1051   1.326       .  A
N1050      C1054   1.347       .  A
N1051      C1052   1.348       .  A
C1052      C1053   1.389       .  A
C1052      H1055   1.082       .  S
C1053      C1054   1.389       .  A
C1053      C1278   1.497       .  S
C1054      H1056   1.081       .  S
N1057      N1058   1.321       .  A
N1057      C1061   1.351       .  A
N1057     Cu1065   2.093       .  S
N1058      C1059   1.341       .  A
N1058     Cu1064   2.057       .  S
C1059      C1060   1.381       .  A
C1059      H1062   1.082       .  S
C1060      C1061   1.391       .  A
C1060      C1670   1.484       .  S
C1061      H1063   1.082       .  S
Cu1064     N1067   2.057       .  S
Cu1065     N1075   2.095       .  S
Cu1066     N1068   2.085       .  S
Cu1066     N1074   2.087       .  S
N1067      N1068   1.320       .  A
N1067      C1071   1.340       .  A
N1068      C1069   1.350       .  A
C1069      C1070   1.389       .  A
C1069      H1072   1.082       .  S
C1070      C1071   1.381       .  A
C1070      C1181   1.480       .  S
C1071      H1073   1.082       .  S
N1074      N1075   1.325       .  A
N1074      C1078   1.346       .  A
N1075      C1076   1.348       .  A
C1076      C1077   1.388       .  A
C1076      H1079   1.082       .  S
C1077      C1078   1.385       .  A
C1077      C1209   1.489       .  S
C1078      H1080   1.082       .  S
N1081      N1082   1.321       .  A
N1081      C1085   1.348       .  A
N1081     Cu1089   2.084       .  S
N1082      C1083   1.341       .  A
N1082     Cu1088   2.057       .  S
C1083      C1084   1.380       .  A
C1083      H1086   1.082       .  S
C1084      C1085   1.388       .  A
C1084      C1586   1.477       .  S
C1085      H1087   1.081       .  S
Cu1088     N1091   2.057       .  S
Cu1089     N1099   2.086       .  S
Cu1090     N1092   2.085       .  S
Cu1090     N1098   2.087       .  S
N1091      N1092   1.320       .  A
N1091      C1095   1.340       .  A
N1092      C1093   1.349       .  A
C1093      C1094   1.391       .  A
C1093      H1096   1.082       .  S
C1094      C1095   1.383       .  A
C1094      C1306   1.484       .  S
C1095      H1097   1.082       .  S
N1098      N1099   1.324       .  A
N1098      C1102   1.346       .  A
N1099      C1100   1.347       .  A
C1100      C1101   1.387       .  A
C1100      H1103   1.082       .  S
C1101      C1102   1.387       .  A
C1101      C1222   1.490       .  S
C1102      H1104   1.081       .  S
N1105      N1106   1.322       .  A
N1105      C1109   1.348       .  A
N1105     Cu1113   2.089       .  S
N1106      C1107   1.343       .  A
N1106     Cu1112   2.065       .  S
C1107      C1108   1.382       .  A
C1107      H1110   1.082       .  S
C1108      C1109   1.388       .  A
C1108      C1418   1.481       .  S
C1109      H1111   1.082       .  S
Cu1112     N1115   2.065       .  S
Cu1113     N1123   2.091       .  S
Cu1114     N1116   2.089       .  S
Cu1114     N1122   2.090       .  S
N1115      N1116   1.321       .  A
N1115      C1119   1.342       .  A
N1116      C1117   1.350       .  A
C1117      C1118   1.387       .  A
C1117      H1120   1.082       .  S
C1118      C1119   1.382       .  A
C1118      C1250   1.481       .  S
C1119      H1121   1.082       .  S
N1122      N1123   1.324       .  A
N1122      C1126   1.347       .  A
N1123      C1124   1.349       .  A
C1124      C1125   1.389       .  A
C1124      H1127   1.082       .  S
C1125      C1126   1.387       .  A
C1125      C1153   1.491       .  S
C1126      H1128   1.082       .  S
N1129      N1130   1.319       .  A
N1129      C1133   1.351       .  A
N1129     Cu1137   2.104       .  S
N1130      C1131   1.340       .  A
N1130     Cu1136   2.052       .  S
C1131      C1132   1.385       .  A
C1131      H1134   1.081       .  S
C1132      C1133   1.398       .  A
C1132      C2441   1.497       .  S
C1133      H1135   1.081       .  S
Cu1136     N1139   2.052       .  S
Cu1137     N1147   2.106       .  S
Cu1138     N1140   2.090       .  S
Cu1138     N1146   2.093       .  S
N1139      N1140   1.320       .  A
N1139      C1143   1.340       .  A
N1140      C1141   1.350       .  A
C1141      C1142   1.390       .  A
C1141      H1144   1.082       .  S
C1142      C1143   1.380       .  A
C1142      C1194   1.481       .  S
C1143      H1145   1.082       .  S
N1146      N1147   1.326       .  A
N1146      C1150   1.347       .  A
N1147      C1148   1.350       .  A
C1148      C1149   1.390       .  A
C1148      H1151   1.082       .  S
C1149      C1150   1.387       .  A
C1149      C1166   1.494       .  S
C1150      H1152   1.082       .  S
C1153      C1154   1.415       .  A
C1153      C1158   1.406       .  A
C1154      C1155   1.411       .  A
C1154      N1159   1.437       .  S
C1155      C1156   1.403       .  A
C1155      H1160   1.084       .  S
C1156      C1157   1.409       .  A
C1156      C1161   1.489       .  S
C1157      C1158   1.408       .  A
C1157      N1162   1.438       .  S
C1158      H1163   1.083       .  S
N1159      H1179   1.046       .  S
N1159      H1180   1.046       .  S
C1161      C1164   1.403       .  A
C1161      C1168   1.409       .  A
N1162      H1177   1.046       .  S
N1162      H1178   1.045       .  S
C1164      C1165   1.411       .  A
C1164      H1169   1.084       .  S
C1165      C1166   1.415       .  A
C1165      N1170   1.437       .  S
C1166      C1167   1.408       .  A
C1167      C1168   1.410       .  A
C1167      H1171   1.083       .  S
C1168      N1172   1.438       .  S
N1170      H1173   1.046       .  S
N1170      H1174   1.046       .  S
N1172      H1175   1.046       .  S
N1172      H1176   1.045       .  S
C1181      C1182   1.412       .  A
C1181      C1186   1.404       .  A
C1182      C1183   1.403       .  A
C1182      N1187   1.438       .  S
C1183      C1184   1.399       .  A
C1183      H1188   1.084       .  S
C1184      C1185   1.410       .  A
C1184      C1189   1.479       .  S
C1185      C1186   1.409       .  A
C1185      N1190   1.438       .  S
C1186      H1191   1.083       .  S
N1187      H1207   1.046       .  S
N1187      H1208   1.046       .  S
C1189      C1192   1.402   1_556  A
C1189      C1196   1.408       .  A
N1190      H1205   1.046       .  S
N1190      H1206   1.046       .  S
C1192      C1193   1.410       .  A
C1192      H1197   1.083       .  S
C1193      C1194   1.413       .  A
C1193      N1198   1.437       .  S
C1194      C1195   1.404       .  A
C1195      C1196   1.402   1_554  A
C1195      H1199   1.084       .  S
C1196      N1200   1.438       .  S
N1198      H1201   1.046       .  S
N1198      H1202   1.046       .  S
N1200      H1203   1.046       .  S
N1200      H1204   1.046       .  S
C1209      C1210   1.414       .  A
C1209      C1214   1.406       .  A
C1210      C1211   1.408       .  A
C1210      N1215   1.437       .  S
C1211      C1212   1.404       .  A
C1211      H1216   1.084       .  S
C1212      C1213   1.412       .  A
C1212      C1217   1.491       .  S
C1213      C1214   1.408       .  A
C1213      N1218   1.438       .  S
C1214      H1219   1.083       .  S
N1215      H1235   1.046       .  S
N1215      H1236   1.046       .  S
C1217      C1220   1.403       .  A
C1217      C1224   1.411       .  A
N1218      H1233   1.046       .  S
N1218      H1234   1.046       .  S
C1220      C1221   1.407       .  A
C1220      H1225   1.084       .  S
C1221      C1222   1.415       .  A
C1221      N1226   1.437       .  S
C1222      C1223   1.406       .  A
C1223      C1224   1.408       .  A
C1223      H1227   1.083       .  S
C1224      N1228   1.438       .  S
N1226      H1229   1.046       .  S
N1226      H1230   1.046       .  S
N1228      H1231   1.046       .  S
N1228      H1232   1.046       .  S
C1237      C1238   1.415       .  A
C1237      C1242   1.407       .  A
C1238      C1239   1.410       .  A
C1238      N1243   1.437   1_455  S
C1239      C1240   1.404       .  A
C1239      H1244   1.084       .  S
C1240      C1241   1.408       .  A
C1240      C1245   1.486       .  S
C1241      C1242   1.403       .  A
C1241      N1246   1.438       .  S
C1242      H1247   1.083       .  S
N1243      H1263   1.046       .  S
N1243      H1264   1.046       .  S
C1245      C1248   1.402       .  A
C1245      C1252   1.411       .  A
N1246      H1261   1.046       .  S
N1246      H1262   1.045       .  S
C1248      C1249   1.403       .  A
C1248      H1253   1.084       .  S
C1249      C1250   1.410       .  A
C1249      N1254   1.438       .  S
C1250      C1251   1.405       .  A
C1251      C1252   1.411       .  A
C1251      H1255   1.084       .  S
C1252      N1256   1.437       .  S
N1254      H1257   1.046       .  S
N1254      H1258   1.046       .  S
N1256      H1259   1.046       .  S
N1256      H1260   1.046       .  S
C1265      C1266   1.414       .  A
C1265      C1270   1.404       .  A
C1266      C1267   1.408       .  A
C1266      N1271   1.437       .  S
C1267      C1268   1.404       .  A
C1267      H1272   1.084       .  S
C1268      C1269   1.412       .  A
C1268      C1273   1.492       .  S
C1269      C1270   1.409       .  A
C1269      N1274   1.438       .  S
C1270      H1275   1.084       .  S
N1271      H1291   1.046       .  S
N1271      H1292   1.046       .  S
C1273      C1276   1.402       .  A
C1273      C1280   1.411       .  A
N1274      H1289   1.046       .  S
N1274      H1290   1.046       .  S
C1276      C1277   1.408       .  A
C1276      H1281   1.084       .  S
C1277      C1278   1.417       .  A
C1277      N1282   1.437       .  S
C1278      C1279   1.408       .  A
C1279      C1280   1.409       .  A
C1279      H1283   1.082       .  S
C1280      N1284   1.438       .  S
N1282      H1285   1.046       .  S
N1282      H1286   1.046       .  S
N1284      H1287   1.046       .  S
N1284      H1288   1.046       .  S
C1293      C1294   1.413       .  A
C1293      C1298   1.404       .  A
C1294      C1295   1.412       .  A
C1294      N1299   1.437       .  S
C1295      C1296   1.404       .  A
C1295      H1300   1.084       .  S
C1296      C1297   1.409       .  A
C1296      C1301   1.484       .  S
C1297      C1298   1.402       .  A
C1297      N1302   1.439       .  S
C1298      H1303   1.084       .  S
N1299      H1319   1.045       .  S
N1299      H1320   1.046       .  S
C1301      C1304   1.401       .  A
C1301      C1308   1.410       .  A
N1302      H1317   1.046       .  S
N1302      H1318   1.046       .  S
C1304      C1305   1.404       .  A
C1304      H1309   1.084       .  S
C1305      C1306   1.414       .  A
C1305      N1310   1.438       .  S
C1306      C1307   1.405       .  A
C1307      C1308   1.408       .  A
C1307      H1311   1.083       .  S
C1308      N1312   1.437       .  S
N1310      H1313   1.046       .  S
N1310      H1314   1.046       .  S
N1312      H1315   1.046       .  S
N1312      H1316   1.046       .  S
C1321      C1322   1.417       .  A
C1321      C1326   1.405       .  A
C1322      C1323   1.413       .  A
C1322      N1327   1.436       .  S
C1323      C1324   1.403       .  A
C1323      H1328   1.083       .  S
C1324      C1325   1.408       .  A
C1324      C1329   1.484   1_556  S
C1325      C1326   1.401       .  A
C1325      N1330   1.439       .  S
C1326      H1331   1.083       .  S
N1327      H1347   1.044       .  S
N1327      H1348   1.046       .  S
C1329      C1332   1.401       .  A
C1329      C1336   1.412       .  A
N1330      H1345   1.046       .  S
N1330      H1346   1.046       .  S
C1332      C1333   1.402       .  A
C1332      H1337   1.084       .  S
C1333      C1334   1.412       .  A
C1333      N1338   1.438       .  S
C1334      C1335   1.404       .  A
C1335      C1336   1.412       .  A
C1335      H1339   1.083       .  S
C1336      N1340   1.437   1_554  S
N1338      H1341   1.046       .  S
N1338      H1342   1.046       .  S
N1340      H1343   1.046       .  S
N1340      H1344   1.046       .  S
C1349      C1350   1.416       .  A
C1349      C1354   1.409       .  A
C1350      C1351   1.408       .  A
C1350      N1355   1.437       .  S
C1351      C1352   1.403       .  A
C1351      H1356   1.084       .  S
C1352      C1353   1.411       .  A
C1352      C1357   1.494       .  S
C1353      C1354   1.410       .  A
C1353      N1358   1.438       .  S
C1354      H1359   1.082       .  S
N1355      H1375   1.046       .  S
N1355      H1376   1.046       .  S
C1357      C1360   1.404       .  A
C1357      C1364   1.411       .  A
N1358      H1373   1.046       .  S
N1358      H1374   1.045       .  S
C1360      C1361   1.411       .  A
C1360      H1365   1.084       .  S
C1361      C1362   1.417       .  A
C1361      N1366   1.437       .  S
C1362      C1363   1.406       .  A
C1363      C1364   1.408       .  A
C1363      H1367   1.083       .  S
C1364      N1368   1.438       .  S
N1366      H1369   1.046       .  S
N1366      H1370   1.046       .  S
N1368      H1371   1.045       .  S
N1368      H1372   1.046       .  S
C1377      C1378   1.416       .  A
C1377      C1382   1.407       .  A
C1378      C1379   1.414       .  A
C1378      N1383   1.437       .  S
C1379      C1380   1.407       .  A
C1379      H1384   1.083       .  S
C1380      C1381   1.412       .  A
C1380      C1385   1.502       .  S
C1381      C1382   1.410       .  A
C1381      N1386   1.438       .  S
C1382      H1387   1.083       .  S
N1383      H1403   1.046       .  S
N1383      H1404   1.046       .  S
C1385      C1388   1.406       .  A
C1385      C1392   1.413       .  A
N1386      H1401   1.046       .  S
N1386      H1402   1.046       .  S
C1388      C1389   1.412       .  A
C1388      H1393   1.084       .  S
C1389      C1390   1.416       .  A
C1389      N1394   1.437       .  S
C1390      C1391   1.408       .  A
C1391      C1392   1.413       .  A
C1391      H1395   1.083       .  S
C1392      N1396   1.437       .  S
N1394      H1397   1.046       .  S
N1394      H1398   1.046       .  S
N1396      H1399   1.046       .  S
N1396      H1400   1.046       .  S
C1405      C1406   1.411       .  A
C1405      C1410   1.400       .  A
C1406      C1407   1.404       .  A
C1406      N1411   1.438       .  S
C1407      C1408   1.404       .  A
C1407      H1412   1.084   1_655  S
C1408      C1409   1.414       .  A
C1408      C1413   1.488   1_655  S
C1409      C1410   1.406       .  A
C1409      N1414   1.438       .  S
C1410      H1415   1.084       .  S
N1411      H1431   1.046       .  S
N1411      H1432   1.046       .  S
C1413      C1416   1.404       .  A
C1413      C1420   1.414       .  A
N1414      H1429   1.046       .  S
N1414      H1430   1.046       .  S
C1416      C1417   1.406       .  A
C1416      H1421   1.084       .  S
C1417      C1418   1.412       .  A
C1417      N1422   1.438       .  S
C1418      C1419   1.402       .  A
C1419      C1420   1.405       .  A
C1419      H1423   1.083       .  S
C1420      N1424   1.438       .  S
N1422      H1425   1.046       .  S
N1422      H1426   1.045       .  S
N1424      H1427   1.046       .  S
N1424      H1428   1.046   1_455  S
C1433      C1434   1.414       .  A
C1433      C1438   1.405       .  A
C1434      C1435   1.403       .  A
C1434      N1439   1.438       .  S
C1435      C1436   1.399       .  A
C1435      H1440   1.084       .  S
C1436      C1437   1.410       .  A
C1436      C1441   1.484       .  S
C1437      C1438   1.412       .  A
C1437      N1442   1.437       .  S
C1438      H1443   1.084       .  S
N1439      H1459   1.046       .  S
N1439      H1460   1.046       .  S
C1441      C1444   1.401   1_565  A
C1441      C1448   1.407   1_565  A
N1442      H1457   1.046       .  S
N1442      H1458   1.046       .  S
C1444      C1445   1.411       .  A
C1444      H1449   1.084   1_545  S
C1445      C1446   1.417       .  A
C1445      N1450   1.436       .  S
C1446      C1447   1.410       .  A
C1447      C1448   1.406       .  A
C1447      H1451   1.083       .  S
C1448      N1452   1.438       .  S
N1450      H1453   1.046       .  S
N1450      H1454   1.046       .  S
N1452      H1455   1.046       .  S
N1452      H1456   1.046       .  S
C1461      C1462   1.415       .  A
C1461      C1466   1.407       .  A
C1462      C1463   1.408       .  A
C1462      N1467   1.437       .  S
C1463      C1464   1.401       .  A
C1463      H1468   1.084       .  S
C1464      C1465   1.408       .  A
C1464      C1469   1.485       .  S
C1465      C1466   1.409       .  A
C1465      N1470   1.437       .  S
C1466      H1471   1.083       .  S
N1467      H1487   1.046       .  S
N1467      H1488   1.046       .  S
C1469      C1472   1.400       .  A
C1469      C1476   1.409       .  A
N1470      H1485   1.046       .  S
N1470      H1486   1.045       .  S
C1472      C1473   1.408       .  A
C1472      H1477   1.084       .  S
C1473      C1474   1.415       .  A
C1473      N1478   1.437       .  S
C1474      C1475   1.407       .  A
C1475      C1476   1.410       .  A
C1475      H1479   1.083       .  S
C1476      N1480   1.437       .  S
N1478      H1481   1.046       .  S
N1478      H1482   1.046       .  S
N1480      H1483   1.046       .  S
N1480      H1484   1.045       .  S
C1489      C1490   1.417       .  A
C1489      C1494   1.407       .  A
C1490      C1491   1.404       .  A
C1490      N1495   1.437   1_556  S
C1491      C1492   1.397       .  A
C1491      H1496   1.084   1_556  S
C1492      C1493   1.411       .  A
C1492      C1497   1.480       .  S
C1493      C1494   1.409       .  A
C1493      N1498   1.439       .  S
C1494      H1499   1.082       .  S
N1495      H1515   1.045       .  S
N1495      H1516   1.046       .  S
C1497      C1500   1.404   1_556  A
C1497      C1504   1.408       .  A
N1498      H1513   1.046       .  S
N1498      H1514   1.044       .  S
C1500      C1501   1.412       .  A
C1500      H1505   1.084       .  S
C1501      C1502   1.413       .  A
C1501      N1506   1.437       .  S
C1502      C1503   1.405       .  A
C1503      C1504   1.401   1_554  A
C1503      H1507   1.083       .  S
C1504      N1508   1.440       .  S
N1506      H1509   1.045       .  S
N1506      H1510   1.046       .  S
N1508      H1511   1.046       .  S
N1508      H1512   1.044       .  S
C1517      C1518   1.416       .  A
C1517      C1522   1.405       .  A
C1518      C1519   1.408       .  A
C1518      N1523   1.438       .  S
C1519      C1520   1.401       .  A
C1519      H1524   1.084       .  S
C1520      C1521   1.409       .  A
C1520      C1525   1.482       .  S
C1521      C1522   1.408       .  A
C1521      N1526   1.438       .  S
C1522      H1527   1.083       .  S
N1523      H1543   1.045       .  S
N1523      H1544   1.046       .  S
C1525      C1528   1.401       .  A
C1525      C1532   1.409       .  A
N1526      H1541   1.046       .  S
N1526      H1542   1.045       .  S
C1528      C1529   1.407       .  A
C1528      H1533   1.084       .  S
C1529      C1530   1.414       .  A
C1529      N1534   1.437       .  S
C1530      C1531   1.405       .  A
C1531      C1532   1.408       .  A
C1531      H1535   1.083       .  S
C1532      N1536   1.438       .  S
N1534      H1537   1.046       .  S
N1534      H1538   1.046       .  S
N1536      H1539   1.046       .  S
N1536      H1540   1.045       .  S
C1545      C1546   1.408       .  A
C1545      C1550   1.405       .  A
C1546      C1547   1.406       .  A
C1546      N1551   1.432       .  S
C1547      C1548   1.406       .  A
C1547      H1552   1.084       .  S
C1548      C1549   1.411       .  A
C1548      C1553   1.492       .  S
C1549      C1550   1.407       .  A
C1549      N1554   1.437       .  S
C1550      H1555   1.084       .  S
N1551      H1571   1.045       .  S
N1551      H1572   1.046       .  S
C1553      C1556   1.406       .  A
C1553      C1560   1.410       .  A
N1554      H1569   1.046       .  S
N1554      H1570   1.046       .  S
C1556      C1557   1.409       .  A
C1556      H1561   1.084       .  S
C1557      C1558   1.412       .  A
C1557      N1562   1.437       .  S
C1558      C1559   1.404       .  A
C1559      C1560   1.407       .  A
C1559      H1563   1.084       .  S
C1560      N1564   1.437       .  S
N1562      H1565   1.046       .  S
N1562      H1566   1.046       .  S
N1564      H1567   1.046       .  S
N1564      H1568   1.046       .  S
C1573      C1574   1.410       .  A
C1573      C1578   1.403       .  A
C1574      C1575   1.407       .  A
C1574      N1579   1.438       .  S
C1575      C1576   1.407       .  A
C1575      H1580   1.083       .  S
C1576      C1577   1.411       .  A
C1576      C1581   1.490       .  S
C1577      C1578   1.403       .  A
C1577      N1582   1.438       .  S
C1578      H1583   1.084       .  S
N1579      H1599   1.046       .  S
N1579      H1600   1.046       .  S
C1581      C1584   1.407       .  A
C1581      C1588   1.411       .  A
N1582      H1597   1.046       .  S
N1582      H1598   1.046       .  S
C1584      C1585   1.407       .  A
C1584      H1589   1.083       .  S
C1585      C1586   1.409       .  A
C1585      N1590   1.437       .  S
C1586      C1587   1.403       .  A
C1587      C1588   1.404       .  A
C1587      H1591   1.084       .  S
C1588      N1592   1.438       .  S
N1590      H1593   1.046       .  S
N1590      H1594   1.045       .  S
N1592      H1595   1.046       .  S
N1592      H1596   1.046       .  S
C1601      C1602   1.411       .  A
C1601      C1606   1.406       .  A
C1602      C1603   1.403       .  A
C1602      N1607   1.438       .  S
C1603      C1604   1.400       .  A
C1603      H1608   1.084   1_565  S
C1604      C1605   1.409       .  A
C1604      C1609   1.481   1_565  S
C1605      C1606   1.412       .  A
C1605      N1610   1.437       .  S
C1606      H1611   1.084       .  S
N1607      H1627   1.046       .  S
N1607      H1628   1.046       .  S
C1609      C1612   1.402       .  A
C1609      C1616   1.407       .  A
N1610      H1625   1.046       .  S
N1610      H1626   1.045       .  S
C1612      C1613   1.409       .  A
C1612      H1617   1.084   1_545  S
C1613      C1614   1.414       .  A
C1613      N1618   1.438       .  S
C1614      C1615   1.405       .  A
C1615      C1616   1.405       .  A
C1615      H1619   1.084       .  S
C1616      N1620   1.437       .  S
N1618      H1621   1.046       .  S
N1618      H1622   1.046       .  S
N1620      H1623   1.046       .  S
N1620      H1624   1.045       .  S
C1629      C1630   1.414       .  A
C1629      C1634   1.406       .  A
C1630      C1631   1.406       .  A
C1630      N1635   1.437       .  S
C1631      C1632   1.400       .  A
C1631      H1636   1.084       .  S
C1632      C1633   1.408       .  A
C1632      C1637   1.480       .  S
C1633      C1634   1.408       .  A
C1633      N1638   1.438       .  S
C1634      H1639   1.083       .  S
N1635      H1655   1.046       .  S
N1635      H1656   1.046       .  S
C1637      C1640   1.400       .  A
C1637      C1644   1.407       .  A
N1638      H1653   1.046       .  S
N1638      H1654   1.045       .  S
C1640      C1641   1.407       .  A
C1640      H1645   1.084       .  S
C1641      C1642   1.415       .  A
C1641      N1646   1.437       .  S
C1642      C1643   1.407       .  A
C1643      C1644   1.407       .  A
C1643      H1647   1.083       .  S
C1644      N1648   1.438       .  S
N1646      H1649   1.046       .  S
N1646      H1650   1.046       .  S
N1648      H1651   1.046       .  S
N1648      H1652   1.045       .  S
C1657      C1658   1.414       .  A
C1657      C1662   1.407   1_545  A
C1658      C1659   1.410   1_545  A
C1658      N1663   1.436       .  S
C1659      C1660   1.403       .  A
C1659      H1664   1.084       .  S
C1660      C1661   1.405       .  A
C1660      C1665   1.480       .  S
C1661      C1662   1.403       .  A
C1661      N1666   1.438       .  S
C1662      H1667   1.083       .  S
N1663      H1683   1.046       .  S
N1663      H1684   1.044       .  S
C1665      C1668   1.400       .  A
C1665      C1672   1.408       .  A
N1666      H1681   1.046       .  S
N1666      H1682   1.045       .  S
C1668      C1669   1.404       .  A
C1668      H1673   1.084       .  S
C1669      C1670   1.414       .  A
C1669      N1674   1.438       .  S
C1670      C1671   1.406       .  A
C1671      C1672   1.410       .  A
C1671      H1675   1.083       .  S
C1672      N1676   1.437       .  S
N1674      H1677   1.046       .  S
N1674      H1678   1.046       .  S
N1676      H1679   1.046       .  S
N1676      H1680   1.045       .  S
C1685      C1686   1.416       .  A
C1685      C1690   1.408       .  A
C1686      C1687   1.407       .  A
C1686      N1691   1.437       .  S
C1687      C1688   1.401       .  A
C1687      H1692   1.084       .  S
C1688      C1689   1.409       .  A
C1688      C1693   1.486       .  S
C1689      C1690   1.409       .  A
C1689      N1694   1.437       .  S
C1690      H1695   1.083       .  S
N1691      H1711   1.046       .  S
N1691      H1712   1.046       .  S
C1693      C1696   1.401       .  A
C1693      C1700   1.410       .  A
N1694      H1709   1.046       .  S
N1694      H1710   1.046       .  S
C1696      C1697   1.408       .  A
C1696      H1701   1.084       .  S
C1697      C1698   1.414       .  A
C1697      N1702   1.437       .  S
C1698      C1699   1.405       .  A
C1699      C1700   1.409       .  A
C1699      H1703   1.084       .  S
C1700      N1704   1.437       .  S
N1702      H1705   1.046       .  S
N1702      H1706   1.046       .  S
N1704      H1707   1.046       .  S
N1704      H1708   1.046       .  S
C1713      C1714   1.413       .  A
C1713      C1718   1.406       .  A
C1714      C1715   1.404       .  A
C1714      N1719   1.438       .  S
C1715      C1716   1.403       .  A
C1715      H1720   1.084       .  S
C1716      C1717   1.412       .  A
C1716      C1721   1.491       .  S
C1717      C1718   1.412       .  A
C1717      N1722   1.437       .  S
C1718      H1723   1.083       .  S
N1719      H1739   1.046       .  S
N1719      H1740   1.046       .  S
C1721      C1724   1.405       .  A
C1721      C1728   1.410       .  A
N1722      H1737   1.046       .  S
N1722      H1738   1.045       .  S
C1724      C1725   1.409       .  A
C1724      H1729   1.084       .  S
C1725      C1726   1.413       .  A
C1725      N1730   1.431       .  S
C1726      C1727   1.407       .  A
C1727      C1728   1.403       .  A
C1727      H1731   1.081       .  S
C1728      N1732   1.438       .  S
N1730      H1733   1.046       .  S
N1730      H1734   1.046       .  S
N1732      H1735   1.046       .  S
N1732      H1736   1.046       .  S
C1741      C1742   1.415       .  A
C1741      C1746   1.404       .  A
C1742      C1743   1.408       .  A
C1742      N1747   1.438       .  S
C1743      C1744   1.402       .  A
C1743      H1748   1.084       .  S
C1744      C1745   1.410       .  A
C1744      C1749   1.488       .  S
C1745      C1746   1.410       .  A
C1745      N1750   1.437       .  S
C1746      H1751   1.083       .  S
N1747      H1767   1.046       .  S
N1747      H1768   1.046       .  S
C1749      C1752   1.402       .  A
C1749      C1756   1.408       .  A
N1750      H1765   1.046       .  S
N1750      H1766   1.046       .  S
C1752      C1753   1.410       .  A
C1752      H1757   1.084       .  S
C1753      C1754   1.416       .  A
C1753      N1758   1.436       .  S
C1754      C1755   1.410       .  A
C1755      C1756   1.409       .  A
C1755      H1759   1.083       .  S
C1756      N1760   1.438       .  S
N1758      H1761   1.046       .  S
N1758      H1762   1.046       .  S
N1760      H1763   1.046       .  S
N1760      H1764   1.046       .  S
C1769      C1770   1.411       .  A
C1769      C1774   1.404       .  A
C1770      C1771   1.404       .  A
C1770      N1775   1.437       .  S
C1771      C1772   1.399   1_655  A
C1771      H1776   1.084       .  S
C1772      C1773   1.411       .  A
C1772      C1777   1.477       .  S
C1773      C1774   1.407   1_455  A
C1773      N1778   1.438       .  S
C1774      H1779   1.084       .  S
N1775      H1795   1.046       .  S
N1775      H1796   1.046       .  S
C1777      C1780   1.402       .  A
C1777      C1784   1.408       .  A
N1778      H1793   1.046       .  S
N1778      H1794   1.045       .  S
C1780      C1781   1.407       .  A
C1780      H1785   1.084       .  S
C1781      C1782   1.410       .  A
C1781      N1786   1.431       .  S
C1782      C1783   1.404       .  A
C1783      C1784   1.401       .  A
C1783      H1787   1.084       .  S
C1784      N1788   1.439       .  S
N1786      H1789   1.046       .  S
N1786      H1790   1.046       .  S
N1788      H1791   1.046       .  S
N1788      H1792   1.045       .  S
C1797      C1798   1.418       .  A
C1797      C1802   1.406       .  A
C1798      C1799   1.410       .  A
C1798      N1803   1.437       .  S
C1799      C1800   1.403       .  A
C1799      H1804   1.084       .  S
C1800      C1801   1.412       .  A
C1800      C1805   1.496       .  S
C1801      C1802   1.411       .  A
C1801      N1806   1.437       .  S
C1802      H1807   1.083       .  S
N1803      H1823   1.046       .  S
N1803      H1824   1.046       .  S
C1805      C1808   1.404       .  A
C1805      C1812   1.412       .  A
N1806      H1821   1.045       .  S
N1806      H1822   1.046       .  S
C1808      C1809   1.411       .  A
C1808      H1813   1.084       .  S
C1809      C1810   1.416       .  A
C1809      N1814   1.437       .  S
C1810      C1811   1.408       .  A
C1811      C1812   1.411       .  A
C1811      H1815   1.083       .  S
C1812      N1816   1.438       .  S
N1814      H1817   1.046       .  S
N1814      H1818   1.046       .  S
N1816      H1819   1.046       .  S
N1816      H1820   1.046       .  S
C1825      C1826   1.412       .  A
C1825      C1830   1.404       .  A
C1826      C1827   1.408       .  A
C1826      N1831   1.431       .  S
C1827      C1828   1.402       .  A
C1827      H1832   1.084       .  S
C1828      C1829   1.405       .  A
C1828      C1833   1.476       .  S
C1829      C1830   1.397       .  A
C1829      N1834   1.433       .  S
C1830      H1835   1.084       .  S
N1831      H1851   1.045       .  S
N1831      H1852   1.046       .  S
C1833      C1836   1.399       .  A
C1833      C1840   1.409   1_565  A
N1834      H1849   1.045       .  S
N1834      H1850   1.046       .  S
C1836      C1837   1.404       .  A
C1836      H1841   1.084       .  S
C1837      C1838   1.414   1_565  A
C1837      N1842   1.438       .  S
C1838      C1839   1.404       .  A
C1839      C1840   1.407       .  A
C1839      H1843   1.083       .  S
C1840      N1844   1.438       .  S
N1842      H1845   1.046       .  S
N1842      H1846   1.046       .  S
N1844      H1847   1.045       .  S
N1844      H1848   1.046       .  S
C1853      C1854   1.413       .  A
C1853      C1858   1.403       .  A
C1854      C1855   1.407       .  A
C1854      N1859   1.438       .  S
C1855      C1856   1.402       .  A
C1855      H1860   1.084       .  S
C1856      C1857   1.409       .  A
C1856      C1861   1.482       .  S
C1857      C1858   1.406       .  A
C1857      N1862   1.437       .  S
C1858      H1863   1.084       .  S
N1859      H1879   1.046       .  S
N1859      H1880   1.046       .  S
C1861      C1864   1.401       .  A
C1861      C1868   1.408       .  A
N1862      H1877   1.046       .  S
N1862      H1878   1.046       .  S
C1864      C1865   1.407       .  A
C1864      H1869   1.084       .  S
C1865      C1866   1.414       .  A
C1865      N1870   1.437       .  S
C1866      C1867   1.405       .  A
C1867      C1868   1.406       .  A
C1867      H1871   1.083       .  S
C1868      N1872   1.437       .  S
N1870      H1873   1.046       .  S
N1870      H1874   1.046       .  S
N1872      H1875   1.046       .  S
N1872      H1876   1.046       .  S
C1881      C1882   1.411       .  A
C1881      C1886   1.405       .  A
C1882      C1883   1.412       .  A
C1882      N1887   1.431       .  S
C1883      C1884   1.405       .  A
C1883      H1888   1.083       .  S
C1884      C1885   1.409       .  A
C1884      C1889   1.487       .  S
C1885      C1886   1.404       .  A
C1885      N1890   1.438       .  S
C1886      H1891   1.083       .  S
N1887      H1907   1.045       .  S
N1887      H1908   1.046       .  S
C1889      C1892   1.399       .  A
C1889      C1896   1.411       .  A
N1890      H1905   1.046       .  S
N1890      H1906   1.046       .  S
C1892      C1893   1.406       .  A
C1892      H1897   1.084       .  S
C1893      C1894   1.416       .  A
C1893      N1898   1.437       .  S
C1894      C1895   1.408       .  A
C1895      C1896   1.413       .  A
C1895      H1899   1.083       .  S
C1896      N1900   1.437       .  S
N1898      H1901   1.046       .  S
N1898      H1902   1.046       .  S
N1900      H1903   1.046       .  S
N1900      H1904   1.045       .  S
C1909      C1910   1.413       .  A
C1909      C1914   1.404       .  A
C1910      C1911   1.404       .  A
C1910      N1915   1.438       .  S
C1911      C1912   1.399       .  A
C1911      H1916   1.084       .  S
C1912      C1913   1.412       .  A
C1912      C1917   1.483       .  S
C1913      C1914   1.411       .  A
C1913      N1918   1.438       .  S
C1914      H1919   1.083       .  S
N1915      H1935   1.046       .  S
N1915      H1936   1.046       .  S
C1917      C1920   1.404       .  A
C1917      C1924   1.411       .  A
N1918      H1933   1.046       .  S
N1918      H1934   1.044       .  S
C1920      C1921   1.408       .  A
C1920      H1925   1.084       .  S
C1921      C1922   1.410       .  A
C1921      N1926   1.432       .  S
C1922      C1923   1.403       .  A
C1923      C1924   1.405       .  A
C1923      H1927   1.084       .  S
C1924      N1928   1.439       .  S
N1926      H1929   1.046       .  S
N1926      H1930   1.045       .  S
N1928      H1931   1.046       .  S
N1928      H1932   1.044       .  S
C1937      C1938   1.410       .  A
C1937      C1942   1.402       .  A
C1938      C1939   1.407   1_655  A
C1938      N1943   1.437       .  S
C1939      C1940   1.404       .  A
C1939      H1944   1.084       .  S
C1940      C1941   1.408   1_455  A
C1940      C1945   1.482       .  S
C1941      C1942   1.404       .  A
C1941      N1946   1.437       .  S
C1942      H1947   1.084       .  S
N1943      H1963   1.045       .  S
N1943      H1964   1.046   1_655  S
C1945      C1948   1.404       .  A
C1945      C1952   1.408       .  A
N1946      H1961   1.046       .  S
N1946      H1962   1.046   1_655  S
C1948      C1949   1.405       .  A
C1948      H1953   1.084       .  S
C1949      C1950   1.410       .  A
C1949      N1954   1.438       .  S
C1950      C1951   1.403       .  A
C1951      C1952   1.405       .  A
C1951      H1955   1.084       .  S
C1952      N1956   1.437       .  S
N1954      H1957   1.046       .  S
N1954      H1958   1.045       .  S
N1956      H1959   1.046       .  S
N1956      H1960   1.046       .  S
C1965      C1966   1.415       .  A
C1965      C1970   1.407       .  A
C1966      C1967   1.409       .  A
C1966      N1971   1.437       .  S
C1967      C1968   1.404       .  A
C1967      H1972   1.084       .  S
C1968      C1969   1.412       .  A
C1968      C1973   1.495       .  S
C1969      C1970   1.410       .  A
C1969      N1974   1.438       .  S
C1970      H1975   1.083       .  S
N1971      H1991   1.046       .  S
N1971      H1992   1.046       .  S
C1973      C1976   1.404       .  A
C1973      C1980   1.413       .  A
N1974      H1989   1.046       .  S
N1974      H1990   1.046       .  S
C1976      C1977   1.408       .  A
C1976      H1981   1.084       .  S
C1977      C1978   1.413       .  A
C1977      N1982   1.437       .  S
C1978      C1979   1.406       .  A
C1979      C1980   1.410       .  A
C1979      H1983   1.083       .  S
C1980      N1984   1.438       .  S
N1982      H1985   1.046       .  S
N1982      H1986   1.046       .  S
N1984      H1987   1.046       .  S
N1984      H1988   1.046       .  S
C1993      C1994   1.416       .  A
C1993      C1998   1.406       .  A
C1994      C1995   1.410       .  A
C1994      N1999   1.437       .  S
C1995      C1996   1.405       .  A
C1995      H2000   1.083       .  S
C1996      C1997   1.413       .  A
C1996      C2001   1.499       .  S
C1997      C1998   1.410       .  A
C1997      N2002   1.438       .  S
C1998      H2003   1.083       .  S
N1999      H2019   1.046       .  S
N1999      H2020   1.046       .  S
C2001      C2004   1.405       .  A
C2001      C2008   1.413       .  A
N2002      H2017   1.046       .  S
N2002      H2018   1.046       .  S
C2004      C2005   1.410       .  A
C2004      H2009   1.084       .  S
C2005      C2006   1.417       .  A
C2005      N2010   1.437       .  S
C2006      C2007   1.407       .  A
C2007      C2008   1.411       .  A
C2007      H2011   1.083       .  S
C2008      N2012   1.438       .  S
N2010      H2013   1.046       .  S
N2010      H2014   1.046       .  S
N2012      H2015   1.046       .  S
N2012      H2016   1.046       .  S
C2021      C2022   1.413       .  A
C2021      C2026   1.402       .  A
C2022      C2023   1.406       .  A
C2022      N2027   1.438       .  S
C2023      C2024   1.403       .  A
C2023      H2028   1.083       .  S
C2024      C2025   1.415       .  A
C2024      C2029   1.492       .  S
C2025      C2026   1.407       .  A
C2025      N2030   1.438       .  S
C2026      H2031   1.084       .  S
N2027      H2047   1.046       .  S
N2027      H2048   1.046       .  S
C2029      C2032   1.404       .  A
C2029      C2036   1.415       .  A
N2030      H2045   1.046       .  S
N2030      H2046   1.046       .  S
C2032      C2033   1.405       .  A
C2032      H2037   1.083       .  S
C2033      C2034   1.410       .  A
C2033      N2038   1.438       .  S
C2034      C2035   1.401       .  A
C2035      C2036   1.408       .  A
C2035      H2039   1.084       .  S
C2036      N2040   1.438       .  S
N2038      H2041   1.046       .  S
N2038      H2042   1.046       .  S
N2040      H2043   1.046       .  S
N2040      H2044   1.046       .  S
C2049      C2050   1.412       .  A
C2049      C2054   1.406       .  A
C2050      C2051   1.409       .  A
C2050      N2055   1.431       .  S
C2051      C2052   1.404       .  A
C2051      H2056   1.084       .  S
C2052      C2053   1.408       .  A
C2052      C2057   1.484       .  S
C2053      C2054   1.403       .  A
C2053      N2058   1.438       .  S
C2054      H2059   1.083       .  S
N2055      H2075   1.046       .  S
N2055      H2076   1.045       .  S
C2057      C2060   1.399       .  A
C2057      C2064   1.410       .  A
N2058      H2073   1.046       .  S
N2058      H2074   1.046       .  S
C2060      C2061   1.400       .  A
C2060      H2065   1.084       .  S
C2061      C2062   1.415       .  A
C2061      N2066   1.438       .  S
C2062      C2063   1.407       .  A
C2063      C2064   1.414       .  A
C2063      H2067   1.083       .  S
C2064      N2068   1.437       .  S
N2066      H2069   1.046       .  S
N2066      H2070   1.046       .  S
N2068      H2071   1.046       .  S
N2068      H2072   1.046       .  S
C2077      C2078   1.416       .  A
C2077      C2082   1.407       .  A
C2078      C2079   1.409       .  A
C2078      N2083   1.437       .  S
C2079      C2080   1.403       .  A
C2079      H2084   1.084       .  S
C2080      C2081   1.412       .  A
C2080      C2085   1.494       .  S
C2081      C2082   1.411       .  A
C2081      N2086   1.438       .  S
C2082      H2087   1.083       .  S
N2083      H2103   1.046       .  S
N2083      H2104   1.046       .  S
C2085      C2088   1.403       .  A
C2085      C2092   1.412       .  A
N2086      H2101   1.046       .  S
N2086      H2102   1.046       .  S
C2088      C2089   1.410       .  A
C2088      H2093   1.084       .  S
C2089      C2090   1.416       .  A
C2089      N2094   1.437       .  S
C2090      C2091   1.406       .  A
C2091      C2092   1.410       .  A
C2091      H2095   1.083       .  S
C2092      N2096   1.438       .  S
N2094      H2097   1.046       .  S
N2094      H2098   1.046       .  S
N2096      H2099   1.046       .  S
N2096      H2100   1.046       .  S
C2105      C2106   1.418       .  A
C2105      C2110   1.408       .  A
C2106      C2107   1.416       .  A
C2106      N2111   1.436       .  S
C2107      C2108   1.405       .  A
C2107      H2112   1.083   1_655  S
C2108      C2109   1.409       .  A
C2108      C2113   1.493   1_655  S
C2109      C2110   1.403       .  A
C2109      N2114   1.439       .  S
C2110      H2115   1.082       .  S
N2111      H2131   1.046       .  S
N2111      H2132   1.045       .  S
C2113      C2116   1.400   1_455  A
C2113      C2120   1.413       .  A
N2114      H2129   1.045       .  S
N2114      H2130   1.046       .  S
C2116      C2117   1.403   1_655  A
C2116      H2121   1.084       .  S
C2117      C2118   1.418       .  A
C2117      N2122   1.438       .  S
C2118      C2119   1.407       .  A
C2119      C2120   1.415       .  A
C2119      H2123   1.083       .  S
C2120      N2124   1.437       .  S
N2122      H2125   1.046   1_455  S
N2122      H2126   1.046       .  S
N2124      H2127   1.046       .  S
N2124      H2128   1.046       .  S
C2133      C2134   1.412   1_655  A
C2133      C2138   1.403       .  A
C2134      C2135   1.406       .  A
C2134      N2139   1.438       .  S
C2135      C2136   1.403       .  A
C2135      H2140   1.084       .  S
C2136      C2137   1.414   1_455  A
C2136      C2141   1.492       .  S
C2137      C2138   1.410       .  A
C2137      N2142   1.438       .  S
C2138      H2143   1.084       .  S
N2139      H2159   1.046       .  S
N2139      H2160   1.046       .  S
C2141      C2144   1.404       .  A
C2141      C2148   1.414       .  A
N2142      H2157   1.046       .  S
N2142      H2158   1.046       .  S
C2144      C2145   1.408       .  A
C2144      H2149   1.084       .  S
C2145      C2146   1.412       .  A
C2145      N2150   1.438       .  S
C2146      C2147   1.401       .  A
C2147      C2148   1.408       .  A
C2147      H2151   1.084       .  S
C2148      N2152   1.438       .  S
N2150      H2153   1.046       .  S
N2150      H2154   1.046       .  S
N2152      H2155   1.046       .  S
N2152      H2156   1.046       .  S
C2161      C2162   1.417       .  A
C2161      C2166   1.408       .  A
C2162      C2163   1.410       .  A
C2162      N2167   1.437       .  S
C2163      C2164   1.401       .  A
C2163      H2168   1.084       .  S
C2164      C2165   1.409       .  A
C2164      C2169   1.489       .  S
C2165      C2166   1.411       .  A
C2165      N2170   1.438       .  S
C2166      H2171   1.083       .  S
N2167      H2187   1.046       .  S
N2167      H2188   1.046       .  S
C2169      C2172   1.403       .  A
C2169      C2176   1.409       .  A
N2170      H2185   1.046       .  S
N2170      H2186   1.045       .  S
C2172      C2173   1.411       .  A
C2172      H2177   1.084       .  S
C2173      C2174   1.415       .  A
C2173      N2178   1.437       .  S
C2174      C2175   1.406       .  A
C2175      C2176   1.409       .  A
C2175      H2179   1.083       .  S
C2176      N2180   1.437       .  S
N2178      H2181   1.046       .  S
N2178      H2182   1.046       .  S
N2180      H2183   1.046       .  S
N2180      H2184   1.045       .  S
C2189      C2190   1.411       .  A
C2189      C2194   1.405       .  A
C2190      C2191   1.406       .  A
C2190      N2195   1.438       .  S
C2191      C2192   1.404       .  A
C2191      H2196   1.084       .  S
C2192      C2193   1.413       .  A
C2192      C2197   1.494       .  S
C2193      C2194   1.413       .  A
C2193      N2198   1.437       .  S
C2194      H2199   1.083       .  S
N2195      H2215   1.046       .  S
N2195      H2216   1.046       .  S
C2197      C2200   1.405       .  A
C2197      C2204   1.409       .  A
N2198      H2213   1.046       .  S
N2198      H2214   1.046       .  S
C2200      C2201   1.413       .  A
C2200      H2205   1.083       .  S
C2201      C2202   1.416       .  A
C2201      N2206   1.436       .  S
C2202      C2203   1.409       .  A
C2203      C2204   1.406       .  A
C2203      H2207   1.082       .  S
C2204      N2208   1.438       .  S
N2206      H2209   1.046       .  S
N2206      H2210   1.046       .  S
N2208      H2211   1.046       .  S
N2208      H2212   1.045       .  S
C2217      C2218   1.410       .  A
C2217      C2222   1.404       .  A
C2218      C2219   1.402       .  A
C2218      N2223   1.439       .  S
C2219      C2220   1.404       .  A
C2219      H2224   1.084       .  S
C2220      C2221   1.412       .  A
C2220      C2225   1.488       .  S
C2221      C2222   1.411       .  A
C2221      N2226   1.437       .  S
C2222      H2227   1.084       .  S
N2223      H2243   1.044       .  S
N2223      H2244   1.046       .  S
C2225      C2228   1.405       .  A
C2225      C2232   1.408       .  A
N2226      H2241   1.046       .  S
N2226      H2242   1.046       .  S
C2228      C2229   1.411       .  A
C2228      H2233   1.084       .  S
C2229      C2230   1.416       .  A
C2229      N2234   1.437       .  S
C2230      C2231   1.406       .  A
C2231      C2232   1.402       .  A
C2231      H2235   1.083       .  S
C2232      N2236   1.438       .  S
N2234      H2237   1.046       .  S
N2234      H2238   1.046       .  S
N2236      H2239   1.046       .  S
N2236      H2240   1.045       .  S
C2245      C2246   1.411       .  A
C2245      C2250   1.401       .  A
C2246      C2247   1.403       .  A
C2246      N2251   1.438       .  S
C2247      C2248   1.402       .  A
C2247      H2252   1.084       .  S
C2248      C2249   1.411       .  A
C2248      C2253   1.483       .  S
C2249      C2250   1.407       .  A
C2249      N2254   1.437       .  S
C2250      H2255   1.084       .  S
N2251      H2271   1.046       .  S
N2251      H2272   1.046       .  S
C2253      C2256   1.403   1_545  A
C2253      C2260   1.408       .  A
N2254      H2269   1.046       .  S
N2254      H2270   1.045       .  S
C2256      C2257   1.408       .  A
C2256      H2261   1.084       .  S
C2257      C2258   1.414       .  A
C2257      N2262   1.437       .  S
C2258      C2259   1.408   1_565  A
C2259      C2260   1.402       .  A
C2259      H2263   1.082       .  S
C2260      N2264   1.438       .  S
N2262      H2265   1.046       .  S
N2262      H2266   1.046       .  S
N2264      H2267   1.046       .  S
N2264      H2268   1.046       .  S
C2273      C2274   1.411       .  A
C2273      C2278   1.406       .  A
C2274      C2275   1.406       .  A
C2274      N2279   1.431       .  S
C2275      C2276   1.401       .  A
C2275      H2280   1.084       .  S
C2276      C2277   1.408       .  A
C2276      C2281   1.478       .  S
C2277      C2278   1.403       .  A
C2277      N2282   1.439       .  S
C2278      H2283   1.083       .  S
N2279      H2299   1.045       .  S
N2279      H2300   1.046       .  S
C2281      C2284   1.398       .  A
C2281      C2288   1.409       .  A
N2282      H2297   1.046       .  S
N2282      H2298   1.045       .  S
C2284      C2285   1.404       .  A
C2284      H2289   1.084       .  S
C2285      C2286   1.417       .  A
C2285      N2290   1.438       .  S
C2286      C2287   1.406       .  A
C2287      C2288   1.408       .  A
C2287      H2291   1.083       .  S
C2288      N2292   1.438       .  S
N2290      H2293   1.046       .  S
N2290      H2294   1.045       .  S
N2292      H2295   1.046       .  S
N2292      H2296   1.045       .  S
C2301      C2302   1.414       .  A
C2301      C2306   1.405       .  A
C2302      C2303   1.409       .  A
C2302      N2307   1.437       .  S
C2303      C2304   1.402       .  A
C2303      H2308   1.084       .  S
C2304      C2305   1.410       .  A
C2304      C2309   1.486       .  S
C2305      C2306   1.409       .  A
C2305      N2310   1.437       .  S
C2306      H2311   1.084       .  S
N2307      H2327   1.046       .  S
N2307      H2328   1.046       .  S
C2309      C2312   1.400       .  A
C2309      C2316   1.408       .  A
N2310      H2325   1.046       .  S
N2310      H2326   1.045       .  S
C2312      C2313   1.409       .  A
C2312      H2317   1.084       .  S
C2313      C2314   1.418       .  A
C2313      N2318   1.437       .  S
C2314      C2315   1.408       .  A
C2315      C2316   1.409       .  A
C2315      H2319   1.083       .  S
C2316      N2320   1.437       .  S
N2318      H2321   1.046       .  S
N2318      H2322   1.046       .  S
N2320      H2323   1.046       .  S
N2320      H2324   1.045       .  S
C2329      C2330   1.410       .  A
C2329      C2334   1.405       .  A
C2330      C2331   1.407       .  A
C2330      N2335   1.432       .  S
C2331      C2332   1.405       .  A
C2331      H2336   1.084       .  S
C2332      C2333   1.410       .  A
C2332      C2337   1.489       .  S
C2333      C2334   1.405       .  A
C2333      N2338   1.438       .  S
C2334      H2339   1.083       .  S
N2335      H2355   1.046       .  S
N2335      H2356   1.045       .  S
C2337      C2340   1.405       .  A
C2337      C2344   1.410       .  A
N2338      H2353   1.046       .  S
N2338      H2354   1.046       .  S
C2340      C2341   1.406       .  A
C2340      H2345   1.084       .  S
C2341      C2342   1.411       .  A
C2341      N2346   1.437       .  S
C2342      C2343   1.406       .  A
C2343      C2344   1.408       .  A
C2343      H2347   1.084       .  S
C2344      N2348   1.437       .  S
N2346      H2349   1.046       .  S
N2346      H2350   1.046       .  S
N2348      H2351   1.046       .  S
N2348      H2352   1.046       .  S
C2357      C2358   1.414       .  A
C2357      C2362   1.404       .  A
C2358      C2359   1.404       .  A
C2358      N2363   1.438       .  S
C2359      C2360   1.401       .  A
C2359      H2364   1.084       .  S
C2360      C2361   1.410       .  A
C2360      C2365   1.484       .  S
C2361      C2362   1.410       .  A
C2361      N2366   1.437   1_554  S
C2362      H2367   1.083       .  S
N2363      H2383   1.046       .  S
N2363      H2384   1.046       .  S
C2365      C2368   1.404   1_554  A
C2365      C2372   1.408       .  A
N2366      H2381   1.046       .  S
N2366      H2382   1.046       .  S
C2368      C2369   1.407       .  A
C2368      H2373   1.084       .  S
C2369      C2370   1.410       .  A
C2369      N2374   1.431       .  S
C2370      C2371   1.407       .  A
C2371      C2372   1.405   1_556  A
C2371      H2375   1.083       .  S
C2372      N2376   1.438       .  S
N2374      H2377   1.045       .  S
N2374      H2378   1.046       .  S
N2376      H2379   1.046       .  S
N2376      H2380   1.046       .  S
C2385      C2386   1.415       .  A
C2385      C2390   1.407       .  A
C2386      C2387   1.410       .  A
C2386      N2391   1.437       .  S
C2387      C2388   1.406       .  A
C2387      H2392   1.083       .  S
C2388      C2389   1.413       .  A
C2388      C2393   1.499       .  S
C2389      C2390   1.408       .  A
C2389      N2394   1.438       .  S
C2390      H2395   1.083       .  S
N2391      H2411   1.045       .  S
N2391      H2412   1.046       .  S
C2393      C2396   1.406       .  A
C2393      C2400   1.414       .  A
N2394      H2409   1.046       .  S
N2394      H2410   1.046       .  S
C2396      C2397   1.410       .  A
C2396      H2401   1.083       .  S
C2397      C2398   1.414       .  A
C2397      N2402   1.437       .  S
C2398      C2399   1.406       .  A
C2399      C2400   1.409       .  A
C2399      H2403   1.083       .  S
C2400      N2404   1.438       .  S
N2402      H2405   1.046       .  S
N2402      H2406   1.046       .  S
N2404      H2407   1.046       .  S
N2404      H2408   1.046       .  S
C2413      C2414   1.412       .  A
C2413      C2418   1.403       .  A
C2414      C2415   1.403       .  A
C2414      N2419   1.438       .  S
C2415      C2416   1.402       .  A
C2415      H2420   1.084       .  S
C2416      C2417   1.414       .  A
C2416      C2421   1.488       .  S
C2417      C2418   1.409       .  A
C2417      N2422   1.438       .  S
C2418      H2423   1.083       .  S
N2419      H2439   1.046       .  S
N2419      H2440   1.046       .  S
C2421      C2424   1.405       .  A
C2421      C2428   1.415       .  A
N2422      H2437   1.046       .  S
N2422      H2438   1.046       .  S
C2424      C2425   1.407       .  A
C2424      H2429   1.083       .  S
C2425      C2426   1.409       .  A
C2425      N2430   1.437       .  S
C2426      C2427   1.399       .  A
C2427      C2428   1.404       .  A
C2427      H2431   1.084       .  S
C2428      N2432   1.438       .  S
N2430      H2433   1.046       .  S
N2430      H2434   1.046       .  S
N2432      H2435   1.046       .  S
N2432      H2436   1.046       .  S
C2441      C2442   1.416       .  A
C2441      C2446   1.410       .  A
C2442      C2443   1.411       .  A
C2442      N2447   1.436       .  S
C2443      C2444   1.402       .  A
C2443      H2448   1.084       .  S
C2444      C2445   1.405       .  A
C2444      C2449   1.483       .  S
C2445      C2446   1.404       .  A
C2445      N2450   1.438       .  S
C2446      H2451   1.081       .  S
N2447      H2467   1.046       .  S
N2447      H2468   1.046       .  S
C2449      C2452   1.401       .  A
C2449      C2456   1.410   1_565  A
N2450      H2465   1.046       .  S
N2450      H2466   1.046       .  S
C2452      C2453   1.403       .  A
C2452      H2457   1.084       .  S
C2453      C2454   1.411   1_565  A
C2453      N2458   1.438       .  S
C2454      C2455   1.404       .  A
C2455      C2456   1.411       .  A
C2455      H2459   1.084       .  S
C2456      N2460   1.437       .  S
N2458      H2461   1.046       .  S
N2458      H2462   1.046       .  S
N2460      H2463   1.046       .  S
N2460      H2464   1.046       .  S
C2469      C2470   1.413       .  A
C2469      C2474   1.406       .  A
C2470      C2471   1.408       .  A
C2470      N2475   1.437       .  S
C2471      C2472   1.403       .  A
C2471      H2476   1.084       .  S
C2472      C2473   1.411       .  A
C2472      C2477   1.489       .  S
C2473      C2474   1.409       .  A
C2473      N2478   1.438       .  S
C2474      H2479   1.084       .  S
N2475      H2495   1.046       .  S
N2475      H2496   1.046       .  S
C2477      C2480   1.403       .  A
C2477      C2484   1.411       .  A
N2478      H2493   1.046       .  S
N2478      H2494   1.045       .  S
C2480      C2481   1.410       .  A
C2480      H2485   1.084       .  S
C2481      C2482   1.414       .  A
C2481      N2486   1.437       .  S
C2482      C2483   1.404       .  A
C2483      C2484   1.407       .  A
C2483      H2487   1.083       .  S
C2484      N2488   1.438       .  S
N2486      H2489   1.046       .  S
N2486      H2490   1.046       .  S
N2488      H2491   1.046       .  S
N2488      H2492   1.046       .  S
C2497      C2498   1.412       .  A
C2497      C2502   1.408       .  A
C2498      C2499   1.407       .  A
C2498      N2503   1.431       .  S
C2499      C2500   1.402       .  A
C2499      H2504   1.084       .  S
C2500      C2501   1.406       .  A
C2500      C2505   1.479       .  S
C2501      C2502   1.404       .  A
C2501      N2506   1.438       .  S
C2502      H2507   1.083       .  S
N2503      H2523   1.046       .  S
N2503      H2524   1.046       .  S
C2505      C2508   1.400       .  A
C2505      C2512   1.409       .  A
N2506      H2521   1.046       .  S
N2506      H2522   1.046       .  S
C2508      C2509   1.399       .  A
C2508      H2513   1.084       .  S
C2509      C2510   1.409       .  A
C2509      N2514   1.433       .  S
C2510      C2511   1.405       .  A
C2511      C2512   1.410       .  A
C2511      H2515   1.084       .  S
C2512      N2516   1.437       .  S
N2514      H2517   1.046       .  S
N2514      H2518   1.046       .  S
N2516      H2519   1.046       .  S
N2516      H2520   1.045       .  S
C2525      C2526   1.415       .  A
C2525      C2530   1.406       .  A
C2526      C2527   1.402       .  A
C2526      N2531   1.438       .  S
C2527      C2528   1.399       .  A
C2527      H2532   1.084       .  S
C2528      C2529   1.410       .  A
C2528      C2533   1.480       .  S
C2529      C2530   1.410       .  A
C2529      N2534   1.437       .  S
C2530      H2535   1.083       .  S
N2531      H2551   1.045       .  S
N2531      H2552   1.046       .  S
C2533      C2536   1.402       .  A
C2533      C2540   1.408       .  A
N2534      H2549   1.046       .  S
N2534      H2550   1.046       .  S
C2536      C2537   1.408       .  A
C2536      H2541   1.084       .  S
C2537      C2538   1.413       .  A
C2537      N2542   1.431       .  S
C2538      C2539   1.406       .  A
C2539      C2540   1.401       .  A
C2539      H2543   1.083       .  S
C2540      N2544   1.439       .  S
N2542      H2545   1.046       .  S
N2542      H2546   1.046       .  S
N2544      H2547   1.046       .  S
N2544      H2548   1.046       .  S
C2553      C2554   1.412       .  A
C2553      C2558   1.404       .  A
C2554      C2555   1.403       .  A
C2554      N2559   1.438       .  S
C2555      C2556   1.402       .  A
C2555      H2560   1.084       .  S
C2556      C2557   1.409       .  A
C2556      C2561   1.482       .  S
C2557      C2558   1.409       .  A
C2557      N2562   1.437       .  S
C2558      H2563   1.083       .  S
N2559      H2579   1.046       .  S
N2559      H2580   1.046       .  S
C2561      C2564   1.404       .  A
C2561      C2568   1.407       .  A
N2562      H2577   1.046       .  S
N2562      H2578   1.046       .  S
C2564      C2565   1.407       .  A
C2564      H2569   1.084       .  S
C2565      C2566   1.410       .  A
C2565      N2570   1.431       .  S
C2566      C2567   1.406       .  A
C2567      C2568   1.403       .  A
C2567      H2571   1.083       .  S
C2568      N2572   1.438       .  S
N2570      H2573   1.045       .  S
N2570      H2574   1.046       .  S
N2572      H2575   1.046       .  S
N2572      H2576   1.046       .  S
C2581      C2582   1.416       .  A
C2581      C2586   1.407       .  A
C2582      C2583   1.408       .  A
C2582      N2587   1.437       .  S
C2583      C2584   1.400       .  A
C2583      H2588   1.084       .  S
C2584      C2585   1.409       .  A
C2584      C2589   1.486       .  S
C2585      C2586   1.410       .  A
C2585      N2590   1.438       .  S
C2586      H2591   1.083       .  S
N2587      H2607   1.046       .  S
N2587      H2608   1.046       .  S
C2589      C2592   1.402       .  A
C2589      C2596   1.410       .  A
N2590      H2605   1.046       .  S
N2590      H2606   1.045       .  S
C2592      C2593   1.410       .  A
C2592      H2597   1.084       .  S
C2593      C2594   1.414       .  A
C2593      N2598   1.438       .  S
C2594      C2595   1.404       .  A
C2595      C2596   1.408       .  A
C2595      H2599   1.084       .  S
C2596      N2600   1.437       .  S
N2598      H2601   1.046       .  S
N2598      H2602   1.046       .  S
N2600      H2603   1.046       .  S
N2600      H2604   1.045       .  S
C2609      C2610   1.413       .  A
C2609      C2614   1.404       .  A
C2610      C2611   1.403       .  A
C2610      N2615   1.438       .  S
C2611      C2612   1.404       .  A
C2611      H2616   1.084       .  S
C2612      C2613   1.414       .  A
C2612      C2617   1.493       .  S
C2613      C2614   1.411       .  A
C2613      N2618   1.437       .  S
C2614      H2619   1.083       .  S
N2615      H2635   1.046       .  S
N2615      H2636   1.046       .  S
C2617      C2620   1.408   1_545  A
C2617      C2624   1.411       .  A
N2618      H2633   1.046       .  S
N2618      H2634   1.045       .  S
C2620      C2621   1.413       .  A
C2620      H2625   1.083       .  S
C2621      C2622   1.412       .  A
C2621      N2626   1.437       .  S
C2622      C2623   1.405   1_565  A
C2623      C2624   1.400       .  A
C2623      H2627   1.083       .  S
C2624      N2628   1.439       .  S
N2626      H2629   1.046       .  S
N2626      H2630   1.046       .  S
N2628      H2631   1.046       .  S
N2628      H2632   1.046       .  S
C2637      C2638   1.415       .  A
C2637      C2642   1.406       .  A
C2638      C2639   1.403       .  A
C2638      N2643   1.438       .  S
C2639      C2640   1.400       .  A
C2639      H2644   1.084       .  S
C2640      C2641   1.410       .  A
C2640      C2645   1.485       .  S
C2641      C2642   1.413       .  A
C2641      N2646   1.436       .  S
C2642      H2647   1.083       .  S
N2643      H2663   1.046       .  S
N2643      H2664   1.046       .  S
C2645      C2648   1.405   1_565  A
C2645      C2652   1.406       .  A
N2646      H2661   1.046       .  S
N2646      H2662   1.046       .  S
C2648      C2649   1.412       .  A
C2648      H2653   1.084       .  S
C2649      C2650   1.414       .  A
C2649      N2654   1.437       .  S
C2650      C2651   1.406   1_545  A
C2651      C2652   1.403       .  A
C2651      H2655   1.083       .  S
C2652      N2656   1.438       .  S
N2654      H2657   1.046       .  S
N2654      H2658   1.046       .  S
N2656      H2659   1.046       .  S
N2656      H2660   1.046       .  S
C2665      C2666   1.410       .  A
C2665      C2670   1.405       .  A
C2666      C2667   1.407       .  A
C2666      N2671   1.431       .  S
C2667      C2668   1.402       .  A
C2667      H2672   1.084       .  S
C2668      C2669   1.407       .  A
C2668      C2673   1.476       .  S
C2669      C2670   1.401       .  A
C2669      N2674   1.439       .  S
C2670      H2675   1.083       .  S
N2671      H2691   1.046       .  S
N2671      H2692   1.046       .  S
C2673      C2676   1.399       .  A
C2673      C2680   1.407       .  A
N2674      H2689   1.046       .  S
N2674      H2690   1.045       .  S
C2676      C2677   1.406       .  A
C2676      H2681   1.084       .  S
C2677      C2678   1.418       .  A
C2677      N2682   1.437       .  S
C2678      C2679   1.406       .  A
C2679      C2680   1.405       .  A
C2679      H2683   1.082       .  S
C2680      N2684   1.438       .  S
N2682      H2685   1.046       .  S
N2682      H2686   1.045       .  S
N2684      H2687   1.046       .  S
N2684      H2688   1.045       .  S
C2693      C2694   1.416       .  A
C2693      C2698   1.406       .  A
C2694      C2695   1.410       .  A
C2694      N2699   1.437       .  S
C2695      C2696   1.402       .  A
C2695      H2700   1.084       .  S
C2696      C2697   1.409       .  A
C2696      C2701   1.489       .  S
C2697      C2698   1.409       .  A
C2697      N2702   1.437       .  S
C2698      H2703   1.083       .  S
N2699      H2719   1.046       .  S
N2699      H2720   1.045       .  S
C2701      C2704   1.402       .  A
C2701      C2708   1.410       .  A
N2702      H2717   1.046       .  S
N2702      H2718   1.046       .  S
C2704      C2705   1.409       .  A
C2704      H2709   1.084       .  S
C2705      C2706   1.415       .  A
C2705      N2710   1.437       .  S
C2706      C2707   1.406       .  A
C2707      C2708   1.411       .  A
C2707      H2711   1.083       .  S
C2708      N2712   1.437       .  S
N2710      H2713   1.046       .  S
N2710      H2714   1.046       .  S
N2712      H2715   1.046       .  S
N2712      H2716   1.046       .  S
C2721      C2722   1.415       .  A
C2721      C2726   1.406       .  A
C2722      C2723   1.403       .  A
C2722      N2727   1.438       .  S
C2723      C2724   1.402       .  A
C2723      H2728   1.084       .  S
C2724      C2725   1.410       .  A
C2724      C2729   1.486       .  S
C2725      C2726   1.409       .  A
C2725      N2730   1.437       .  S
C2726      H2731   1.083       .  S
N2727      H2747   1.046       .  S
N2727      H2748   1.046       .  S
C2729      C2732   1.405   1_554  A
C2729      C2736   1.410       .  A
N2730      H2745   1.046       .  S
N2730      H2746   1.046       .  S
C2732      C2733   1.408       .  A
C2732      H2737   1.084       .  S
C2733      C2734   1.410       .  A
C2733      N2738   1.431       .  S
C2734      C2735   1.406       .  A
C2735      C2736   1.401   1_556  A
C2735      H2739   1.083   1_556  S
C2736      N2740   1.439       .  S
N2738      H2741   1.046       .  S
N2738      H2742   1.045       .  S
N2740      H2743   1.046       .  S
N2740      H2744   1.046       .  S
C2749      C2750   1.410       .  A
C2749      C2754   1.406       .  A
C2750      C2751   1.408       .  A
C2750      N2755   1.432       .  S
C2751      C2752   1.406       .  A
C2751      H2756   1.084       .  S
C2752      C2753   1.408       .  A
C2752      C2757   1.491       .  S
C2753      C2754   1.403       .  A
C2753      N2758   1.432       .  S
C2754      H2759   1.084       .  S
N2755      H2775   1.046       .  S
N2755      H2776   1.046       .  S
C2757      C2760   1.405       .  A
C2757      C2764   1.411       .  A
N2758      H2773   1.046       .  S
N2758      H2774   1.046       .  S
C2760      C2761   1.408       .  A
C2760      H2765   1.084       .  S
C2761      C2762   1.412       .  A
C2761      N2766   1.437       .  S
C2762      C2763   1.405       .  A
C2763      C2764   1.407       .  A
C2763      H2767   1.084       .  S
C2764      N2768   1.438       .  S
N2766      H2769   1.046       .  S
N2766      H2770   1.044       .  S
N2768      H2771   1.046       .  S
N2768      H2772   1.046       .  S
C2777      C2778   1.418       .  A
C2777      C2782   1.408       .  A
C2778      C2779   1.409       .  A
C2778      N2783   1.437       .  S
C2779      C2780   1.400       .  A
C2779      H2784   1.084       .  S
C2780      C2781   1.408       .  A
C2780      C2785   1.486       .  S
C2781      C2782   1.409       .  A
C2781      N2786   1.437       .  S
C2782      H2787   1.083       .  S
N2783      H2803   1.046       .  S
N2783      H2804   1.046       .  S
C2785      C2788   1.401       .  A
C2785      C2792   1.411       .  A
N2786      H2801   1.046       .  S
N2786      H2802   1.045       .  S
C2788      C2789   1.405       .  A
C2788      H2793   1.084       .  S
C2789      C2790   1.411       .  A
C2789      N2794   1.432       .  S
C2790      C2791   1.405       .  A
C2791      C2792   1.411       .  A
C2791      H2795   1.084       .  S
C2792      N2796   1.437       .  S
N2794      H2797   1.046       .  S
N2794      H2798   1.045       .  S
N2796      H2799   1.046       .  S
N2796      H2800   1.045       .  S
C2805      C2806   1.412       .  A
C2805      C2810   1.404       .  A
C2806      C2807   1.403       .  A
C2806      N2811   1.438       .  S
C2807      C2808   1.403       .  A
C2807      H2812   1.084       .  S
C2808      C2809   1.412       .  A
C2808      C2813   1.488       .  S
C2809      C2810   1.408       .  A
C2809      N2814   1.437       .  S
C2810      H2815   1.083   1_556  S
N2811      H2831   1.046       .  S
N2811      H2832   1.046       .  S
C2813      C2816   1.405       .  A
C2813      C2820   1.411       .  A
N2814      H2829   1.046   1_556  S
N2814      H2830   1.046       .  S
C2816      C2817   1.406       .  A
C2816      H2821   1.084       .  S
C2817      C2818   1.409       .  A
C2817      N2822   1.431       .  S
C2818      C2819   1.407       .  A
C2819      C2820   1.404       .  A
C2819      H2823   1.083       .  S
C2820      N2824   1.438       .  S
N2822      H2825   1.046       .  S
N2822      H2826   1.045       .  S
N2824      H2827   1.046       .  S
N2824      H2828   1.046       .  S
C2833      C2834   1.415       .  A
C2833      C2838   1.405   1_556  A
C2834      C2835   1.406       .  A
C2834      N2839   1.437       .  S
C2835      C2836   1.399       .  A
C2835      H2840   1.084       .  S
C2836      C2837   1.410   1_556  A
C2836      C2841   1.482       .  S
C2837      C2838   1.409       .  A
C2837      N2842   1.438       .  S
C2838      H2843   1.083       .  S
N2839      H2859   1.046       .  S
N2839      H2860   1.046       .  S
C2841      C2844   1.403       .  A
C2841      C2848   1.408       .  A
N2842      H2857   1.046       .  S
N2842      H2858   1.045       .  S
C2844      C2845   1.412       .  A
C2844      H2849   1.083       .  S
C2845      C2846   1.414       .  A
C2845      N2850   1.437       .  S
C2846      C2847   1.404       .  A
C2847      C2848   1.402       .  A
C2847      H2851   1.084       .  S
C2848      N2852   1.439       .  S
N2850      H2853   1.046       .  S
N2850      H2854   1.046       .  S
N2852      H2855   1.046       .  S
N2852      H2856   1.045       .  S
C2861      C2862   1.418       .  A
C2861      C2866   1.410       .  A
C2862      C2863   1.415       .  A
C2862      N2867   1.436       .  S
C2863      C2864   1.405       .  A
C2863      H2868   1.083       .  S
C2864      C2865   1.410       .  A
C2864      C2869   1.499       .  S
C2865      C2866   1.407       .  A
C2865      N2870   1.438       .  S
C2866      H2871   1.082       .  S
N2867      H2887   1.046       .  S
N2867      H2888   1.046       .  S
C2869      C2872   1.405       .  A
C2869      C2876   1.414       .  A
N2870      H2885   1.046       .  S
N2870      H2886   1.045       .  S
C2872      C2873   1.407       .  A
C2872      H2877   1.084       .  S
C2873      C2874   1.412       .  A
C2873      N2878   1.438       .  S
C2874      C2875   1.406       .  A
C2875      C2876   1.414       .  A
C2875      H2879   1.083   1_455  S
C2876      N2880   1.437       .  S
N2878      H2881   1.046       .  S
N2878      H2882   1.046       .  S
N2880      H2883   1.046   1_455  S
N2880      H2884   1.045       .  S
C2889      C2890   1.415       .  A
C2889      C2894   1.406       .  A
C2890      C2891   1.413       .  A
C2890      N2895   1.437       .  S
C2891      C2892   1.403       .  A
C2891      H2896   1.084       .  S
C2892      C2893   1.410       .  A
C2892      C2897   1.490       .  S
C2893      C2894   1.409       .  A
C2893      N2898   1.438       .  S
C2894      H2899   1.083       .  S
N2895      H2915   1.046       .  S
N2895      H2916   1.046       .  S
C2897      C2900   1.402       .  A
C2897      C2904   1.409       .  A
N2898      H2913   1.046       .  S
N2898      H2914   1.045       .  S
C2900      C2901   1.412       .  A
C2900      H2905   1.084       .  S
C2901      C2902   1.419       .  A
C2901      N2906   1.437       .  S
C2902      C2903   1.407       .  A
C2903      C2904   1.408       .  A
C2903      H2907   1.083       .  S
C2904      N2908   1.438       .  S
N2906      H2909   1.046       .  S
N2906      H2910   1.046       .  S
N2908      H2911   1.046       .  S
N2908      H2912   1.045       .  S
C2917      C2918   1.415       .  A
C2917      C2922   1.407       .  A
C2918      C2919   1.412       .  A
C2918      N2923   1.437       .  S
C2919      C2920   1.403       .  A
C2919      H2924   1.084       .  S
C2920      C2921   1.406       .  A
C2920      C2925   1.484       .  S
C2921      C2922   1.405       .  A
C2921      N2926   1.438       .  S
C2922      H2927   1.083       .  S
N2923      H2943   1.046       .  S
N2923      H2944   1.046       .  S
C2925      C2928   1.401       .  A
C2925      C2932   1.409       .  A
N2926      H2941   1.046       .  S
N2926      H2942   1.046       .  S
C2928      C2929   1.405       .  A
C2928      H2933   1.084       .  S
C2929      C2930   1.412       .  A
C2929      N2934   1.438       .  S
C2930      C2931   1.406       .  A
C2931      C2932   1.411       .  A
C2931      H2935   1.083       .  S
C2932      N2936   1.437       .  S
N2934      H2937   1.046       .  S
N2934      H2938   1.046       .  S
N2936      H2939   1.046       .  S
N2936      H2940   1.046       .  S
C2945      C2946   1.413       .  A
C2945      C2950   1.407       .  A
C2946      C2947   1.411       .  A
C2946      N2951   1.437   1_455  S
C2947      C2948   1.403       .  A
C2947      H2952   1.084       .  S
C2948      C2949   1.406       .  A
C2948      C2953   1.482       .  S
C2949      C2950   1.403       .  A
C2949      N2954   1.438       .  S
C2950      H2955   1.083       .  S
N2951      H2971   1.046       .  S
N2951      H2972   1.046   1_655  S
C2953      C2956   1.400       .  A
C2953      C2960   1.409       .  A
N2954      H2969   1.046       .  S
N2954      H2970   1.046       .  S
C2956      C2957   1.404       .  A
C2956      H2961   1.084       .  S
C2957      C2958   1.413       .  A
C2957      N2962   1.438       .  S
C2958      C2959   1.405       .  A
C2959      C2960   1.411       .  A
C2959      H2963   1.083       .  S
C2960      N2964   1.437       .  S
N2962      H2965   1.046       .  S
N2962      H2966   1.046       .  S
N2964      H2967   1.046       .  S
N2964      H2968   1.045       .  S
C2973      C2974   1.410       .  A
C2973      C2978   1.404       .  A
C2974      C2975   1.408       .  A
C2974      N2979   1.437       .  S
C2975      C2976   1.407       .  A
C2975      H2980   1.083       .  S
C2976      C2977   1.413       .  A
C2976      C2981   1.496       .  S
C2977      C2978   1.408       .  A
C2977      N2982   1.438       .  S
C2978      H2983   1.084       .  S
N2979      H2999   1.045       .  S
N2979      H3000   1.046       .  S
C2981      C2984   1.407       .  A
C2981      C2988   1.413       .  A
N2982      H2997   1.046       .  S
N2982      H2998   1.045       .  S
C2984      C2985   1.408       .  A
C2984      H2989   1.083       .  S
C2985      C2986   1.410       .  A
C2985      N2990   1.437       .  S
C2986      C2987   1.404       .  A
C2987      C2988   1.408       .  A
C2987      H2991   1.084       .  S
C2988      N2992   1.438       .  S
N2990      H2993   1.046       .  S
N2990      H2994   1.045       .  S
N2992      H2995   1.046       .  S
N2992      H2996   1.046       .  S
C3001      C3002   1.417       .  A
C3001      C3006   1.408       .  A
C3002      C3003   1.411       .  A
C3002      N3007   1.437       .  S
C3003      C3004   1.404       .  A
C3003      H3008   1.084       .  S
C3004      C3005   1.413       .  A
C3004      C3009   1.499       .  S
C3005      C3006   1.412       .  A
C3005      N3010   1.438       .  S
C3006      H3011   1.083       .  S
N3007      H3027   1.046       .  S
N3007      H3028   1.046       .  S
C3009      C3012   1.405       .  A
C3009      C3016   1.412       .  A
N3010      H3025   1.046       .  S
N3010      H3026   1.046       .  S
C3012      C3013   1.411       .  A
C3012      H3017   1.083       .  S
C3013      C3014   1.416       .  A
C3013      N3018   1.437       .  S
C3014      C3015   1.408       .  A
C3015      C3016   1.409       .  A
C3015      H3019   1.083       .  S
C3016      N3020   1.438       .  S
N3018      H3021   1.046       .  S
N3018      H3022   1.046       .  S
N3020      H3023   1.046       .  S
N3020      H3024   1.046       .  S
C3029      C3030   1.412       .  A
C3029      C3034   1.405       .  A
C3030      C3031   1.409       .  A
C3030      N3035   1.431       .  S
C3031      C3032   1.404       .  A
C3031      H3036   1.084       .  S
C3032      C3033   1.408       .  A
C3032      C3037   1.488       .  S
C3033      C3034   1.404       .  A
C3033      N3038   1.433       .  S
C3034      H3039   1.084       .  S
N3035      H3055   1.046       .  S
N3035      H3056   1.046       .  S
C3037      C3040   1.400       .  A
C3037      C3044   1.414       .  A
N3038      H3053   1.046       .  S
N3038      H3054   1.046       .  S
C3040      C3041   1.404       .  A
C3040      H3045   1.084       .  S
C3041      C3042   1.414       .  A
C3041      N3046   1.432       .  S
C3042      C3043   1.405       .  A
C3043      C3044   1.411       .  A
C3043      H3047   1.083       .  S
C3044      N3048   1.438       .  S
N3046      H3049   1.046       .  S
N3046      H3050   1.046       .  S
N3048      H3051   1.046       .  S
N3048      H3052   1.044       .  S
C3057      C3058   1.411       .  A
C3057      C3062   1.404       .  A
C3058      C3059   1.409       .  A
C3058      N3063   1.437       .  S
C3059      C3060   1.407       .  A
C3059      H3064   1.083       .  S
C3060      C3061   1.414       .  A
C3060      C3065   1.498       .  S
C3061      C3062   1.408       .  A
C3061      N3066   1.438       .  S
C3062      H3067   1.084       .  S
N3063      H3083   1.045       .  S
N3063      H3084   1.046       .  S
C3065      C3068   1.407       .  A
C3065      C3072   1.414       .  A
N3066      H3081   1.046       .  S
N3066      H3082   1.046       .  S
C3068      C3069   1.408       .  A
C3068      H3073   1.083       .  S
C3069      C3070   1.410       .  A
C3069      N3074   1.437       .  S
C3070      C3071   1.404       .  A
C3071      C3072   1.409       .  A
C3071      H3075   1.084       .  S
C3072      N3076   1.437       .  S
N3074      H3077   1.046       .  S
N3074      H3078   1.045       .  S
N3076      H3079   1.046       .  S
N3076      H3080   1.046       .  S
C3085      C3086   1.415       .  A
C3085      C3090   1.405       .  A
C3086      C3087   1.413       .  A
C3086      N3091   1.437       .  S
C3087      C3088   1.405       .  A
C3087      H3092   1.083       .  S
C3088      C3089   1.409       .  A
C3088      C3093   1.488       .  S
C3089      C3090   1.402       .  A
C3089      N3094   1.438       .  S
C3090      H3095   1.083       .  S
N3091      H3111   1.045       .  S
N3091      H3112   1.046       .  S
C3093      C3096   1.401       .  A
C3093      C3100   1.411       .  A
N3094      H3109   1.046       .  S
N3094      H3110   1.046       .  S
C3096      C3097   1.404       .  A
C3096      H3101   1.084       .  S
C3097      C3098   1.417       .  A
C3097      N3102   1.438       .  S
C3098      C3099   1.406       .  A
C3099      C3100   1.411       .  A
C3099      H3103   1.083       .  S
C3100      N3104   1.437       .  S
N3102      H3105   1.046       .  S
N3102      H3106   1.046       .  S
N3104      H3107   1.046       .  S
N3104      H3108   1.046       .  S
C3113      C3114   1.413       .  A
C3113      C3118   1.405       .  A
C3114      C3115   1.409       .  A
C3114      N3119   1.437       .  S
C3115      C3116   1.402       .  A
C3115      H3120   1.084       .  S
C3116      C3117   1.407       .  A
C3116      C3121   1.481       .  S
C3117      C3118   1.405       .  A
C3117      N3122   1.437       .  S
C3118      H3123   1.084       .  S
N3119      H3139   1.046       .  S
N3119      H3140   1.046       .  S
C3121      C3124   1.400       .  A
C3121      C3128   1.408       .  A
N3122      H3137   1.046       .  S
N3122      H3138   1.046       .  S
C3124      C3125   1.403       .  A
C3124      H3129   1.084       .  S
C3125      C3126   1.413       .  A
C3125      N3130   1.438       .  S
C3126      C3127   1.406       .  A
C3127      C3128   1.411       .  A
C3127      H3131   1.083       .  S
C3128      N3132   1.437       .  S
N3130      H3133   1.046       .  S
N3130      H3134   1.045       .  S
N3132      H3135   1.046       .  S
N3132      H3136   1.045       .  S
C3141      C3142   1.414       .  A
C3141      C3146   1.405       .  A
C3142      C3143   1.411       .  A
C3142      N3147   1.437       .  S
C3143      C3144   1.403       .  A
C3143      H3148   1.084       .  S
C3144      C3145   1.409       .  A
C3144      C3149   1.487       .  S
C3145      C3146   1.407       .  A
C3145      N3150   1.438       .  S
C3146      H3151   1.083       .  S
N3147      H3167   1.046       .  S
N3147      H3168   1.046       .  S
C3149      C3152   1.400       .  A
C3149      C3156   1.408       .  A
N3150      H3165   1.046       .  S
N3150      H3166   1.045       .  S
C3152      C3153   1.410       .  A
C3152      H3157   1.084       .  S
C3153      C3154   1.419       .  A
C3153      N3158   1.437       .  S
C3154      C3155   1.409       .  A
C3155      C3156   1.409       .  A
C3155      H3159   1.082       .  S
C3156      N3160   1.438       .  S
N3158      H3161   1.045       .  S
N3158      H3162   1.046       .  S
N3160      H3163   1.046       .  S
N3160      H3164   1.045       .  S
