geometry optimzed in LAMMPS
_audit_creation_date              2020-12-01 
_audit_creation_method            'lammps2cif' 
_symmetry_space_group_name_H-M    'P1' 
_symmetry_Int_Tables_number       1 
_symmetry_cell_setting            triclinic 
loop_ 
_symmetry_equiv_pos_as_xyz 
  x,y,z 
_cell_length_a                    44.67907468 
_cell_length_b                    45.192189127633725 
_cell_length_c                    74.73559993685555 
_cell_angle_alpha                 89.97521042854046 
_cell_angle_beta                  90.0841281352059 
_cell_angle_gamma                 90.0253911090556 
loop_ 
_atom_site_label 
_atom_site_type_symbol 
_atom_site_fract_x 
_atom_site_fract_y 
_atom_site_fract_z 
_atom_site_charge 
In1        In  0.67474621  0.64930283  0.91164244     1.36900
C2          C  0.62304339  0.62698184  0.90018948     0.78100
O3          O  0.66032022  0.69624435  0.91620653    -0.60300
O4          O  0.68121098  0.68563481  0.89152988    -0.51300
C5          C  0.69153118  0.65166026  0.94577112     0.70800
O6          O  0.66462802  0.64781844  0.94112475    -0.46100
C7          C  0.71493026  0.61170315  0.89895499     0.75500
O8          O  0.63223388  0.62326282  0.91601053    -0.58000
O9          O  0.71928931  0.63927180  0.89912911    -0.48100
O10         O  0.64018066  0.64203942  0.89039273    -0.54400
C11         C  0.66867519  0.70502646  0.90102376     0.85600
O12         O  0.70965868  0.65463530  0.93301321    -0.56300
O13         O  0.68997939  0.60349995  0.90498564    -0.59600
In14       In  0.28128132  0.81318366  0.90753748     1.36900
C15         C  0.33298080  0.83455814  0.89572180     0.78100
O16         O  0.29724114  0.76745302  0.91424229    -0.60300
O17         O  0.27352103  0.77345815  0.88988723    -0.51300
C18         C  0.26470752  0.81558281  0.94163854     0.70800
O19         O  0.29177534  0.81714499  0.93697518    -0.46100
C20         C  0.24196686  0.85026467  0.89290984     0.75500
O21         O  0.31704656  0.81708775  0.88663584    -0.58000
O22         O  0.23619926  0.82314317  0.89502350    -0.48100
O23         O  0.32261196  0.84096706  0.91093488    -0.54400
C24         C  0.28779371  0.75603139  0.89994674     0.85600
O25         O  0.24639265  0.81265371  0.92894717    -0.56300
O26         O  0.26786895  0.85790391  0.89768975    -0.59600
In27       In  0.56685928  0.92968955  0.84487761     1.36900
C28         C  0.59530899  0.88299881  0.85790117     0.78100
O29         O  0.57376861  0.97467966  0.85719111    -0.60300
O30         O  0.61185306  0.94871012  0.85040960    -0.51300
C31         C  0.56282856  0.94585504  0.81092709     0.70800
O32         O  0.55723855  0.96315214  0.82368164    -0.46100
C33         C  0.51141600  0.91618640  0.85446167     0.75500
O34         O  0.59612516  0.88965593  0.84149462    -0.58000
O35         O  0.52723335  0.93426496  0.86319535    -0.48100
O36         O  0.57992997  0.90012174  0.86751973    -0.54400
C37         C  0.60194418  0.97257946  0.85673720     0.85600
O38         O  0.57017415  0.91995459  0.81547027    -0.56300
O39         O  0.52346727  0.90613664  0.84053263    -0.59600
In40       In  0.39127739  0.53047284  0.84506812     1.36900
C41         C  0.36369019  0.57858696  0.85686773     0.78100
O42         O  0.34525555  0.51253177  0.84951258    -0.60300
O43         O  0.38202835  0.48666852  0.85849317    -0.51300
C44         C  0.40021956  0.51317798  0.81134419     0.70800
O45         O  0.38887838  0.53792126  0.81523397    -0.46100
C46         C  0.44531308  0.54538146  0.85684220     0.75500
O47         O  0.36183579  0.57034060  0.84073246    -0.58000
O48         O  0.42906628  0.52692673  0.86500482    -0.48100
O49         O  0.37951920  0.56230918  0.86675522    -0.54400
C50         C  0.35397931  0.48920696  0.85708325     0.85600
O51         O  0.40704763  0.49740421  0.82465464    -0.56300
O52         O  0.43455774  0.55485950  0.84234475    -0.59600
In53       In  0.06528816  0.03592908  0.84777450     1.36900
C54         C  0.08903889  0.08691969  0.85863717     0.78100
O55         O  0.01813155  0.05195328  0.84298012    -0.60300
O56         O  0.02823654  0.03308636  0.86823991    -0.51300
C57         C  0.06202459  0.01787125  0.81392513     0.70800
O58         O  0.06661199  0.04467214  0.81790558    -0.46100
C59         C  0.10244190  0.99418337  0.85994759     0.75500
O60         O  0.09270008  0.07738902  0.84289313    -0.58000
O61         O  0.11134264  0.01881858  0.85410915    -0.48100
O62         O  0.07410685  0.07013082  0.86867322    -0.54400
C63         C  0.00916717  0.04603331  0.85854729     0.85600
O64         O  0.05847061  0.00091789  0.82711584    -0.56300
O65         O  0.07435433  0.99122737  0.86034017    -0.59600
In66       In  0.89307928  0.43323508  0.84793378     1.36900
C67         C  0.86812236  0.38240452  0.85761419     0.78100
O68         O  0.94072951  0.41917754  0.84454192    -0.60300
O69         O  0.92839078  0.43802978  0.86944870    -0.51300
C70         C  0.89880332  0.45145458  0.81428759     0.70800
O71         O  0.89790134  0.42435365  0.81835917    -0.46100
C72         C  0.85362221  0.47225572  0.85992066     0.75500
O73         O  0.86585000  0.39233947  0.84187202    -0.58000
O74         O  0.88148394  0.47677346  0.86072261    -0.48100
O75         O  0.88335774  0.39816995  0.86810354    -0.54400
C76         C  0.94856140  0.42599397  0.86019174     0.85600
O77         O  0.89714330  0.46894995  0.82736017    -0.56300
O78         O  0.84609344  0.44773213  0.85328284    -0.59600
In79       In  0.17368848  0.31988971  0.91703361     1.36900
C80         C  0.12511493  0.34870739  0.90642410     0.78100
O81         O  0.19054077  0.36463662  0.90928055    -0.60300
O82         O  0.21900789  0.32791096  0.90440184    -0.51300
C83         C  0.19206468  0.31491600  0.95099086     0.70800
O84         O  0.16598118  0.32314421  0.94689299    -0.46100
C85         C  0.15880682  0.26623270  0.90492082     0.75500
O86         O  0.13283855  0.34782904  0.92270052    -0.58000
O87         O  0.17728542  0.28259801  0.89693260    -0.48100
O88         O  0.14205932  0.33488785  0.89588240    -0.54400
C89         C  0.21498391  0.35546368  0.90304604     0.85600
O90         O  0.20849295  0.30884418  0.93780889    -0.56300
O91         O  0.14925587  0.27661135  0.91945550    -0.59600
In92       In  0.77804289  0.15070449  0.91102606     1.36900
C93         C  0.82903212  0.12632393  0.89969411     0.78100
O94         O  0.76267616  0.10491542  0.90493031    -0.60300
O95         O  0.73307469  0.14024341  0.89870562    -0.51300
C96         C  0.76051321  0.15387649  0.94504759     0.70800
O97         O  0.78648009  0.14597228  0.94049369    -0.46100
C98         C  0.78806640  0.20596163  0.90032305     0.75500
O99         O  0.82156647  0.12639192  0.91599255    -0.58000
O100        O  0.77223733  0.18833294  0.89129054    -0.48100
O101        O  0.81054977  0.13872858  0.88935916    -0.54400
C102        C  0.73770562  0.11271289  0.89870391     0.85600
O103        O  0.74352667  0.16070104  0.93222736    -0.56300
O104        O  0.79746493  0.19569185  0.91494405    -0.59600
In105      In  0.68419069  0.81638172  0.41258849     1.36900
C106        C  0.63448490  0.84196500  0.40090448     0.78100
O107        O  0.70213959  0.86204279  0.40779654    -0.60300
O108        O  0.72979316  0.82554239  0.40093562    -0.51300
C109        C  0.69976496  0.81232003  0.44680964     0.70800
O110        O  0.67337369  0.81842083  0.44201734    -0.46100
C111        C  0.67380499  0.76111068  0.40150538     0.75500
O112        O  0.64145020  0.84163572  0.41727547    -0.58000
O113        O  0.68813000  0.77951918  0.39216180    -0.48100
O114        O  0.65302404  0.82959264  0.39066204    -0.54400
C115        C  0.72693824  0.85330463  0.40180607     0.85600
O116        O  0.71784627  0.80795420  0.43416386    -0.56300
O117        O  0.66616209  0.77050235  0.41665897    -0.59600
In118      In  0.57392345  0.53030905  0.35081054     1.36900
C119        C  0.59982155  0.57937657  0.36234265     0.78100
O120        O  0.53072068  0.55354006  0.34628264    -0.60300
O121        O  0.53443560  0.52594496  0.36923995    -0.51300
C122        C  0.56988789  0.51109462  0.31740300     0.70800
O123        O  0.56395258  0.49500925  0.33068046    -0.46100
C124        C  0.61031464  0.48953949  0.36358375     0.75500
O125        O  0.60125953  0.57129899  0.34618793    -0.58000
O126        O  0.58223344  0.48690072  0.36464714    -0.48100
O127        O  0.58581771  0.56201156  0.37255862    -0.54400
C128        C  0.51882270  0.54407025  0.36042560     0.85600
O129        O  0.57743667  0.53728019  0.32114197    -0.56300
O130        O  0.61945157  0.51311327  0.35645086    -0.59600
In131      In  0.28496257  0.64173764  0.40945257     1.36900
C132        C  0.33794419  0.61966948  0.40115051     0.78100
O133        O  0.27141021  0.59679807  0.39982387    -0.60300
O134        O  0.24089850  0.63225145  0.39592013    -0.51300
C135        C  0.26564148  0.64347072  0.44310170     0.70800
O136        O  0.29283243  0.63977791  0.43918916    -0.46100
C137        C  0.29418199  0.69717810  0.39905002     0.75500
O138        O  0.32499677  0.61315276  0.41563939    -0.58000
O139        O  0.28258083  0.67812034  0.38887311    -0.48100
O140        O  0.32369692  0.63697511  0.39107155    -0.54400
C141        C  0.24619124  0.60499335  0.39419280     0.85600
O142        O  0.24848692  0.64678647  0.42985451    -0.56300
O143        O  0.29941016  0.68832384  0.41472687    -0.59600
In144      In  0.39652615  0.92694185  0.34928185     1.36900
C145        C  0.36948148  0.87720915  0.35887885     0.78100
O146        O  0.44176710  0.90649330  0.34531145    -0.60300
O147        O  0.43417511  0.93053268  0.36923338    -0.51300
C148        C  0.40235681  0.94653053  0.31594360     0.70800
O149        O  0.40585626  0.96291309  0.32941031    -0.46100
C150        C  0.35985029  0.96772710  0.36245547     0.75500
O151        O  0.36994860  0.88593519  0.34282939    -0.58000
O152        O  0.35061583  0.94442015  0.35502334    -0.48100
O153        O  0.38256055  0.89395883  0.36986296    -0.54400
C154        C  0.45194784  0.91501332  0.36013047     0.85600
O155        O  0.39586188  0.92001269  0.31947028    -0.56300
O156        O  0.38795706  0.97019712  0.36332310    -0.59600
In157      In  0.18257043  0.14525398  0.41587246     1.36900
C158        C  0.13472189  0.11738927  0.40353555     0.78100
O159        O  0.16042334  0.18959557  0.41788330    -0.60300
O160        O  0.18857403  0.18149166  0.39553441    -0.51300
C161        C  0.20023353  0.15336966  0.44946861     0.70800
O162        O  0.17365275  0.14633361  0.44558011    -0.46100
C163        C  0.22323832  0.10688104  0.40475099     0.75500
O164        O  0.14129987  0.11739936  0.41999815    -0.58000
O165        O  0.22664305  0.13444751  0.40286323    -0.48100
O166        O  0.15207491  0.13210834  0.39370483    -0.54400
C167        C  0.17099882  0.19905703  0.40334115     0.85600
O168        O  0.21737365  0.15660562  0.43624004    -0.56300
O169        O  0.19955228  0.09920493  0.41260814    -0.59600
In170      In  0.07550073  0.42241615  0.33909918     1.36900
C171        C  0.10150027  0.37403168  0.35192161     0.78100
O172        O  0.12134912  0.44053502  0.34330720    -0.60300
O173        O  0.08450901  0.46554050  0.35316156    -0.51300
C174        C  0.07014277  0.44138097  0.30566896     0.70800
O175        O  0.07735144  0.41501756  0.30928443    -0.46100
C176        C  0.01981476  0.41035039  0.34895462     0.75500
O177        O  0.10329915  0.38102531  0.33557305    -0.58000
O178        O  0.03630563  0.42784126  0.35767143    -0.48100
O179        O  0.08687229  0.39183013  0.36146966    -0.54400
C180        C  0.11251315  0.46348880  0.35128819     0.85600
O181        O  0.06535004  0.45759108  0.31904595    -0.56300
O182        O  0.03134253  0.40015040  0.33487690    -0.59600
In183      In  0.90715800  0.02554878  0.34536912     1.36900
C184        C  0.88289749  0.07591619  0.35667486     0.78100
O185        O  0.86103082  0.01147556  0.35323740    -0.60300
O186        O  0.89691624  0.98227074  0.35919568    -0.51300
C187        C  0.91016444  0.00780876  0.31135277     0.70800
O188        O  0.90544742  0.03437638  0.31565058    -0.46100
C189        C  0.96363117  0.03391880  0.35527720     0.75500
O190        O  0.87914208  0.06640198  0.34094184    -0.58000
O191        O  0.94602852  0.01758855  0.36398933    -0.48100
O192        O  0.89934525  0.05995580  0.36642398    -0.54400
C193        C  0.86919130  0.98732997  0.36008467     0.85600
O194        O  0.91331320  0.99041182  0.32437441    -0.56300
O195        O  0.95268550  0.04499705  0.34126639    -0.59600
In196      In  0.79199787  0.30968794  0.40597346     1.36900
C197        C  0.84197303  0.33426174  0.39429451     0.78100
O198        O  0.81119700  0.26473510  0.41075623    -0.60300
O199        O  0.78623144  0.27146747  0.38688715    -0.51300
C200        C  0.77294400  0.30693508  0.43949148     0.70800
O201        O  0.80011422  0.31131254  0.43570752    -0.46100
C202        C  0.75222713  0.34788829  0.39375095     0.75500
O203        O  0.83400581  0.33599454  0.41047730    -0.58000
O204        O  0.74787914  0.32030633  0.39294433    -0.48100
O205        O  0.82451634  0.31992696  0.38427104    -0.54400
C206        C  0.80194856  0.25409703  0.39620442     0.85600
O207        O  0.75589684  0.30351441  0.42621844    -0.56300
O208        O  0.77702175  0.35562270  0.40027851    -0.59600
In209      In  0.77299671  0.64601097  0.09875774     1.36900
C210        C  0.82575410  0.62484717  0.10868031     0.78100
O211        O  0.78663633  0.69317084  0.09447371    -0.60300
O212        O  0.76740834  0.68213011  0.11950270    -0.51300
C213        C  0.75645135  0.64864374  0.06456674     0.70800
O214        O  0.78325712  0.64458207  0.06928325    -0.46100
C215        C  0.73512658  0.60586687  0.11176806     0.75500
O216        O  0.81621327  0.62250463  0.09284469    -0.58000
O217        O  0.72855492  0.63297986  0.11084541    -0.48100
O218        O  0.80839342  0.63800145  0.11930673    -0.54400
C219        C  0.77962668  0.70165444  0.10992772     0.85600
O220        O  0.73819731  0.65145843  0.07729594    -0.56300
O221        O  0.76083933  0.59946794  0.10611198    -0.59600
In222      In  0.06481526  0.53862390  0.15723695     1.36900
C223        C  0.09322275  0.58631728  0.14618895     0.78100
O224        O  0.11110618  0.52176926  0.15369945    -0.60300
O225        O  0.07495767  0.49510123  0.14429253    -0.51300
C226        C  0.05922145  0.51969996  0.19059402     0.70800
O227        O  0.05498054  0.50323855  0.17724531    -0.46100
C228        C  0.01006333  0.55091883  0.14579073     0.75500
O229        O  0.09130298  0.57977430  0.16258320    -0.58000
O230        O  0.02716408  0.53385755  0.13721751    -0.48100
O231        O  0.08052403  0.56859815  0.13560934    -0.54400
C232        C  0.10285866  0.49798987  0.14641696     0.85600
O233        O  0.06523644  0.54631817  0.18694736    -0.56300
O234        O  0.02062558  0.56060518  0.16025502    -0.59600
In235      In  0.89634958  0.92445816  0.15959759     1.36900
C236        C  0.86657130  0.87680720  0.14884759     0.78100
O237        O  0.85047414  0.94353340  0.15746045    -0.60300
O238        O  0.88670656  0.96855758  0.14685235    -0.51300
C239        C  0.90416997  0.94086866  0.19338079     0.70800
O240        O  0.90852541  0.95813107  0.18040104    -0.46100
C241        C  0.95109903  0.91332856  0.14713918     0.75500
O242        O  0.87053596  0.88264136  0.16518089    -0.58000
O243        O  0.93258732  0.92898206  0.13861766    -0.48100
O244        O  0.87807937  0.89509283  0.13813444    -0.54400
C245        C  0.85888952  0.96674237  0.14962640     0.85600
O246        O  0.89630525  0.91500182  0.18910023    -0.56300
O247        O  0.94178768  0.90392114  0.16195934    -0.59600
In248      In  0.18412707  0.81700494  0.09429219     1.36900
C249        C  0.13392704  0.84234004  0.10577385     0.78100
O250        O  0.16732039  0.77119981  0.08828822    -0.60300
O251        O  0.18785818  0.77902184  0.11345009    -0.51300
C252        C  0.20310041  0.81624584  0.06073180     0.70800
O253        O  0.17608318  0.82074063  0.06478840    -0.46100
C254        C  0.22477193  0.85272114  0.10805564     0.75500
O255        O  0.14089652  0.84178013  0.08943047    -0.58000
O256        O  0.22702435  0.82494883  0.10936258    -0.48100
O257        O  0.15238803  0.82985872  0.11602737    -0.54400
C258        C  0.17456359  0.76102751  0.10335484     0.85600
O259        O  0.22035751  0.81178448  0.07381888    -0.56300
O260        O  0.20210813  0.86184838  0.09967148    -0.59600
In261      In  0.27786996  0.31377885  0.10325490     1.36900
C262        C  0.32854426  0.33783007  0.11462200     0.78100
O263        O  0.26413309  0.35843760  0.11246286    -0.60300
O264        O  0.23251232  0.32337877  0.11482414    -0.51300
C265        C  0.25913220  0.31376212  0.06948442     0.70800
O266        O  0.28640179  0.31681252  0.07355792    -0.46100
C267        C  0.28598534  0.25784444  0.11287609     0.75500
O268        O  0.32001392  0.34003918  0.09853536    -0.58000
O269        O  0.27237456  0.27614623  0.12262237    -0.48100
O270        O  0.31139348  0.32317999  0.12463740    -0.54400
C271        C  0.23821692  0.35050874  0.11693370     0.85600
O272        O  0.24175702  0.31070397  0.08260153    -0.56300
O273        O  0.29423565  0.26777018  0.09795014    -0.59600
In274      In  0.39648457  0.03301859  0.16432017     1.36900
C275        C  0.37030256  0.08236426  0.15301484     0.78100
O276        O  0.44277580  0.05107128  0.16830363    -0.60300
O277        O  0.43403459  0.02767281  0.14431280    -0.51300
C278        C  0.39923026  0.01455536  0.19819061     0.70800
O279        O  0.39526611  0.04142485  0.19420398    -0.46100
C280        C  0.35934583  0.99269451  0.15128562     0.75500
O281        O  0.37045904  0.07500295  0.16933218    -0.58000
O282        O  0.38713948  0.98819390  0.15252560    -0.48100
O283        O  0.38379823  0.06480022  0.14272600    -0.54400
C284        C  0.45252063  0.04237557  0.15341641     0.85600
O285        O  0.40160483  0.99748075  0.18497145    -0.56300
O286        O  0.35068305  0.01768961  0.15664912    -0.59600
In287      In  0.56616281  0.42091444  0.16712242     1.36900
C288        C  0.59243904  0.37322724  0.15395866     0.78100
O289        O  0.52156939  0.39951685  0.17219578    -0.60300
O290        O  0.52569335  0.42757046  0.14956093    -0.51300
C291        C  0.56454482  0.43753997  0.20110502     0.70800
O292        O  0.56835988  0.41086613  0.19667683    -0.46100
C293        C  0.60225107  0.46240812  0.15401997     0.75500
O294        O  0.59531360  0.38073157  0.17013693    -0.58000
O295        O  0.57407589  0.46476199  0.15357345    -0.48100
O296        O  0.57589405  0.38984456  0.14469890    -0.54400
C297        C  0.50930571  0.41033234  0.15849903     0.85600
O298        O  0.56115402  0.45524332  0.18826647    -0.56300
O299        O  0.61182713  0.43884013  0.16098050    -0.59600
In300      In  0.68080537  0.14456645  0.09805850     1.36900
C301        C  0.62913532  0.12076021  0.10783069     0.78100
O302        O  0.69322745  0.09924705  0.10756162    -0.60300
O303        O  0.72570737  0.13333662  0.10991701    -0.51300
C304        C  0.69760345  0.14699054  0.06399205     0.70800
O305        O  0.67071893  0.14355781  0.06864835    -0.46100
C306        C  0.67416531  0.20018797  0.10891709     0.75500
O307        O  0.64032898  0.11606875  0.09258335    -0.58000
O308        O  0.68787657  0.18117558  0.11815920    -0.48100
O309        O  0.64384602  0.13818333  0.11764217    -0.54400
C310        C  0.71929354  0.10643190  0.11219209     0.85600
O311        O  0.71593683  0.14920487  0.07673488    -0.56300
O312        O  0.66510565  0.19108980  0.09395203    -0.59600
In313      In  0.78799084  0.81313342  0.59845521     1.36900
C314        C  0.84091084  0.83356190  0.60942433     0.78100
O315        O  0.77383077  0.85873408  0.60616419    -0.60300
O316        O  0.74527033  0.82277843  0.61297919    -0.51300
C317        C  0.76851813  0.81204889  0.56476048     0.70800
O318        O  0.79585422  0.81481732  0.56873607    -0.46100
C319        C  0.79247431  0.75681213  0.60801004     0.75500
O320        O  0.83096911  0.83886340  0.59392536    -0.58000
O321        O  0.78099226  0.77612128  0.61799752    -0.48100
O322        O  0.82402622  0.81785366  0.61897626    -0.54400
C323        C  0.74976901  0.85030381  0.61329829     0.85600
O324        O  0.75119269  0.81003407  0.57796907    -0.56300
O325        O  0.80079842  0.76608470  0.59291052    -0.59600
In326      In  0.89321945  0.53064053  0.66169323     1.36900
C327        C  0.86122938  0.57717931  0.65074807     0.78100
O328        O  0.93521749  0.55787032  0.66359294    -0.60300
O329        O  0.93494756  0.52217374  0.64525172    -0.51300
C330        C  0.90172177  0.51465807  0.69550415     0.70800
O331        O  0.88957151  0.53884894  0.69118832    -0.46100
C332        C  0.85897917  0.48672190  0.64939072     0.75500
O333        O  0.86277995  0.56983811  0.66698128    -0.58000
O334        O  0.88029251  0.49750432  0.64051299    -0.48100
O335        O  0.87560479  0.56071981  0.64031222    -0.54400
C336        C  0.94916725  0.54375883  0.65172098     0.85600
O337        O  0.91026655  0.49891585  0.68250555    -0.56300
O338        O  0.85537456  0.49803470  0.66461668    -0.59600
In339      In  0.07678649  0.91901529  0.66566090     1.36900
C340        C  0.10607399  0.87217356  0.65330195     0.78100
O341        O  0.03263834  0.89579035  0.66816451    -0.60300
O342        O  0.03974131  0.92279257  0.64530636    -0.51300
C343        C  0.06912735  0.93813216  0.69889071     0.70800
O344        O  0.06193904  0.95311717  0.68534998    -0.46100
C345        C  0.11379554  0.96164561  0.65593267     0.75500
O346        O  0.10157459  0.87602648  0.66983898    -0.58000
O347        O  0.12247622  0.93840159  0.66368683    -0.48100
O348        O  0.09576225  0.89222173  0.64331816    -0.54400
C349        C  0.02251658  0.90537392  0.65353817     0.85600
O350        O  0.07954577  0.91272794  0.69553844    -0.56300
O351        O  0.08598414  0.96318781  0.65303793    -0.59600
In352      In  0.18191574  0.63830890  0.59586024     1.36900
C353        C  0.13002122  0.61547872  0.60663917     0.78100
O354        O  0.22696949  0.62734763  0.60772939    -0.60300
O355        O  0.19557101  0.59260681  0.60420475    -0.51300
C356        C  0.19971419  0.64066259  0.56177130     0.70800
O357        O  0.17274900  0.63623169  0.56605258    -0.46100
C358        C  0.17567984  0.69373896  0.60761657     0.75500
O359        O  0.14583174  0.63226267  0.61620729    -0.58000
O360        O  0.18823631  0.67371351  0.61664478    -0.48100
O361        O  0.14040277  0.61055472  0.59119966    -0.54400
C362        C  0.22138522  0.60011945  0.60917232     0.85600
O363        O  0.21716111  0.64444543  0.57481963    -0.56300
O364        O  0.16738843  0.68584617  0.59220564    -0.59600
In365      In  0.28603480  0.14145851  0.60085829     1.36900
C366        C  0.33486456  0.11276603  0.61107780     0.78100
O367        O  0.30830954  0.18511445  0.59660423    -0.60300
O368        O  0.28275016  0.17962530  0.62028299    -0.51300
C369        C  0.26653248  0.14751132  0.56744346     0.70800
O370        O  0.29324800  0.14074737  0.57106278    -0.46100
C371        C  0.24560793  0.10532604  0.61466333     0.75500
O372        O  0.32564269  0.11227939  0.59508737    -0.58000
O373        O  0.24194804  0.13303959  0.61464741    -0.48100
O374        O  0.31949057  0.12832321  0.62161792    -0.54400
C375        C  0.29932474  0.19625668  0.61105319     0.85600
O376        O  0.24980080  0.15072441  0.58085184    -0.56300
O377        O  0.26941129  0.09644639  0.60749537    -0.59600
In378      In  0.40364285  0.42595580  0.66012574     1.36900
C379        C  0.37867146  0.37454050  0.65152290     0.78100
O380        O  0.35677278  0.44066757  0.65470223    -0.60300
O381        O  0.39256096  0.46745906  0.64507588    -0.51300
C382        C  0.40950131  0.44730757  0.69318966     0.70800
O383        O  0.40989719  0.41992428  0.68984916    -0.46100
C384        C  0.45888204  0.41812390  0.64782180     0.75500
O385        O  0.37652018  0.38516764  0.66710018    -0.58000
O386        O  0.43835178  0.42918000  0.63839288    -0.48100
O387        O  0.39375615  0.38986050  0.64077929    -0.54400
C388        C  0.36463024  0.46374227  0.64647785     0.85600
O389        O  0.40650102  0.46367250  0.67965343    -0.56300
O390        O  0.45159455  0.41252340  0.66373521    -0.59600
In391      In  0.57246202  0.03171435  0.65991456     1.36900
C392        C  0.59416738  0.08257388  0.64762317     0.78100
O393        O  0.61956210  0.01654934  0.65603188    -0.60300
O394        O  0.58438560  0.98843378  0.64705509    -0.51300
C395        C  0.56774860  0.01445103  0.69360894     0.70800
O396        O  0.57222375  0.04119379  0.68943072    -0.46100
C397        C  0.51556681  0.03707199  0.65047698     0.75500
O398        O  0.57898803  0.06502787  0.63815617    -0.58000
O399        O  0.53449355  0.02466112  0.64045012    -0.48100
O400        O  0.59834716  0.07422063  0.66355891    -0.54400
C401        C  0.61215971  0.99223356  0.64907892     0.85600
O402        O  0.56571207  0.99683593  0.68062100    -0.56300
O403        O  0.52564417  0.04582122  0.66530244    -0.59600
In404      In  0.68305818  0.31305782  0.59000181     1.36900
C405        C  0.63527836  0.34329581  0.60066298     0.78100
O406        O  0.65636158  0.27115672  0.58871683    -0.60300
O407        O  0.69209720  0.27319522  0.60738214    -0.51300
C408        C  0.70243121  0.30496013  0.55680591     0.70800
O409        O  0.67659587  0.31462809  0.56026530    -0.46100
C410        C  0.72470439  0.34920845  0.60263676     0.75500
O411        O  0.64113279  0.33970065  0.58431309    -0.58000
O412        O  0.71717589  0.32583731  0.61066206    -0.48100
O413        O  0.65369745  0.33168016  0.61123596    -0.54400
C414        C  0.67048436  0.25854451  0.60113855     0.85600
O415        O  0.71807033  0.29847016  0.57033425    -0.56300
O416        O  0.71125178  0.35387128  0.58807098    -0.59600
C417        C  0.63613960  0.19112884  0.61109719     0.30300
C418        C  0.61531939  0.16826414  0.60881255    -0.36100
C419        C  0.61432319  0.14705639  0.62245434     0.16300
C420        C  0.63237254  0.14829720  0.63744480     0.22100
C421        C  0.65341659  0.17113917  0.63968153    -0.34200
C422        C  0.65461104  0.19228347  0.62591044     0.16200
O423        O  0.63996640  0.21377648  0.60025978    -0.26200
C424        C  0.66136325  0.22958350  0.60808781     0.06000
C425        C  0.67149064  0.21727104  0.62406517    -0.31100
O426        O  0.62744461  0.12607168  0.64854586    -0.22900
C427        C  0.60616190  0.11038390  0.64042689    -0.02900
C428        C  0.59716151  0.12239756  0.62417434    -0.17300
H429        H  0.60076417  0.16719193  0.59724284     0.20700
H430        H  0.66773864  0.17239766  0.65134675     0.19000
H431        H  0.68793199  0.22608509  0.63328578     0.19000
H432        H  0.58047684  0.11405271  0.61494763     0.14800
C433        C  0.57783446  0.37508018  0.62559909     0.30300
C434        C  0.56185173  0.38116896  0.64126839    -0.36100
C435        C  0.53363738  0.39399500  0.63889932     0.16300
C436        C  0.52198990  0.40066403  0.62225763     0.22100
C437        C  0.53813424  0.39476356  0.60653947    -0.34200
C438        C  0.56634128  0.38166298  0.60890332     0.16200
O439        O  0.60375436  0.36142118  0.62475965    -0.26200
C440        C  0.60903218  0.35914921  0.60732971     0.06000
C441        C  0.58662410  0.37144660  0.59674686    -0.31100
O442        O  0.49445244  0.41106000  0.62319231    -0.22900
C443        C  0.48851468  0.41099712  0.64064026    -0.02900
C444        C  0.51204776  0.40060323  0.65104412    -0.17300
H445        H  0.57042151  0.37541329  0.65436469     0.20700
H446        H  0.52896286  0.39920231  0.59340320     0.19000
H447        H  0.58505076  0.37184123  0.58229677     0.19000
H448        H  0.51268326  0.39733749  0.66538879     0.14800
C449        C  0.39449134  0.08071128  0.63432187     0.30300
C450        C  0.41313474  0.07588779  0.64911053    -0.36100
C451        C  0.43972157  0.06055881  0.64567831     0.16300
C452        C  0.44742970  0.05038235  0.62888260     0.22100
C453        C  0.42843665  0.05469809  0.61412507    -0.34200
C454        C  0.40190673  0.07032701  0.61752629     0.16200
O455        O  0.36980895  0.09660093  0.63426267    -0.26200
C456        C  0.36124680  0.09641301  0.61722674     0.06000
C457        C  0.38020039  0.08026100  0.60618748    -0.31100
O458        O  0.47473884  0.03927333  0.62844040    -0.22900
C459        C  0.48447744  0.04242307  0.64516452    -0.02900
C460        C  0.46357802  0.05529894  0.65647602    -0.17300
H461        H  0.40794085  0.08468434  0.66220627     0.20700
H462        H  0.43456795  0.04763269  0.60079600     0.19000
H463        H  0.37873877  0.07720667  0.59185182     0.19000
H464        H  0.46635303  0.06165116  0.67034372     0.14800
C465        C  0.35217646  0.31226585  0.62892529     0.30300
C466        C  0.34921080  0.29309346  0.61432571    -0.36100
C467        C  0.33156710  0.26796474  0.61717814     0.16300
C468        C  0.31759678  0.26207412  0.63325849     0.22100
C469        C  0.32042642  0.28143144  0.64787802    -0.34200
C470        C  0.33830882  0.30656546  0.64506292     0.16200
O471        O  0.36815888  0.33668894  0.62923691    -0.26200
C472        C  0.36462542  0.34683902  0.64578126     0.06000
C473        C  0.34627807  0.32906241  0.65629219    -0.31100
O474        O  0.30341797  0.23643446  0.63314717    -0.22900
C475        C  0.30849151  0.22591743  0.61679618    -0.02900
C476        C  0.32575189  0.24463430  0.60628083    -0.17300
H477        H  0.36036105  0.29720956  0.60171925     0.20700
H478        H  0.30995791  0.27690392  0.66063744     0.19000
H479        H  0.33979571  0.33227860  0.67010217     0.19000
H480        H  0.33378800  0.24100458  0.59280045     0.14800
C481        C  0.28458541  0.55947731  0.62169649     0.30300
C482        C  0.31518627  0.55406075  0.62425974    -0.36100
C483        C  0.32273555  0.52544423  0.62989300     0.16300
C484        C  0.30161510  0.50371453  0.63296191     0.22100
C485        C  0.27103702  0.50900367  0.63017888    -0.34200
C486        C  0.26351556  0.53756880  0.62441713     0.16200
O487        O  0.27254094  0.58462539  0.61640667    -0.26200
C488        C  0.24343744  0.57864206  0.61560608     0.06000
C489        C  0.23648458  0.54972695  0.62040462    -0.31100
O490        O  0.31358507  0.47896248  0.63892812    -0.22900
C491        C  0.34273168  0.48487765  0.63950912    -0.02900
C492        C  0.34979012  0.51336065  0.63394653    -0.17300
H493        H  0.33191536  0.57100602  0.62209437     0.20700
H494        H  0.25429032  0.49211635  0.63246504     0.19000
H495        H  0.21472376  0.53920194  0.62072596     0.19000
H496        H  0.37154814  0.52387744  0.63353572     0.14800
C497        C  0.20770200  0.04479175  0.63246771     0.30300
C498        C  0.20467335  0.01557720  0.63840123    -0.36100
C499        C  0.17574037  0.00691160  0.64320393     0.16300
C500        C  0.15132431  0.02554858  0.64204413     0.22100
C501        C  0.15446600  0.05501827  0.63639502    -0.34200
C502        C  0.18355650  0.06383479  0.63177574     0.16200
O503        O  0.23253037  0.05706469  0.62667985    -0.26200
C504        C  0.22435856  0.08443752  0.62244892     0.06000
C505        C  0.19419906  0.09009703  0.62542485    -0.31100
O506        O  0.12610594  0.01221551  0.64640598    -0.22900
C507        C  0.13469816  0.98489206  0.65058077    -0.02900
C508        C  0.16529644  0.98037451  0.64896591    -0.17300
H509        H  0.22348830  0.00053093  0.63897260     0.20700
H510        H  0.13553544  0.06986025  0.63542264     0.19000
H511        H  0.18184114  0.11021026  0.62273923     0.19000
H512        H  0.17783267  0.96022379  0.65123769     0.14800
C513        C  0.15593441  0.76747273  0.61630170     0.30300
C514        C  0.14491491  0.79579828  0.61230483    -0.36100
C515        C  0.13812279  0.81382103  0.62703650     0.16300
C516        C  0.14189388  0.80467725  0.64452637     0.22100
C517        C  0.15354336  0.77659156  0.64851656    -0.34200
C518        C  0.16038515  0.75857360  0.63378044     0.16200
O519        O  0.16142299  0.74616297  0.60467350    -0.26200
C520        C  0.16992726  0.72346894  0.61483206     0.06000
C521        C  0.16986347  0.72996776  0.63302395    -0.31100
O522        O  0.13183596  0.82422222  0.65619545    -0.22900
C523        C  0.12160793  0.84618171  0.64602339    -0.02900
C524        C  0.12516393  0.84102689  0.62780216    -0.17300
H525        H  0.14084311  0.80287857  0.59868317     0.20700
H526        H  0.15608611  0.76892007  0.66215204     0.19000
H527        H  0.17453995  0.71522846  0.64409891     0.19000
H528        H  0.11798359  0.85477092  0.61673515     0.14800
C529        C  0.77422299  0.39235269  0.62785468     0.30300
C530        C  0.78778114  0.40349040  0.64341710    -0.36100
C531        C  0.80799873  0.42690775  0.64091707     0.16300
C532        C  0.81490872  0.43809326  0.62422534     0.22100
C533        C  0.80114753  0.42715606  0.60871450    -0.34200
C534        C  0.78048266  0.40423006  0.61124882     0.16200
O535        O  0.75411467  0.37101021  0.62705298    -0.26200
C536        C  0.74721306  0.36958231  0.60975152     0.06000
C537        C  0.76276703  0.38978847  0.59930337    -0.31100
O538        O  0.83427055  0.46006762  0.62496772    -0.22900
C539        C  0.83950199  0.46331641  0.64236886    -0.02900
C540        C  0.82369879  0.44341284  0.65296216    -0.17300
H541        H  0.78254898  0.39486734  0.65655677     0.20700
H542        H  0.80584155  0.43624360  0.59561650     0.19000
H543        H  0.76119084  0.39328642  0.58500367     0.19000
H544        H  0.82368629  0.44155328  0.66740174     0.14800
C545        C  0.06602276  0.59478494  0.63052466     0.30300
C546        C  0.04547774  0.59597241  0.64466723    -0.36100
C547        C  0.02079697  0.57695425  0.64334633     0.16300
C548        C  0.01665955  0.55779852  0.62917554     0.22100
C549        C  0.03729043  0.55660542  0.61498437    -0.34200
C550        C  0.06189628  0.57591231  0.61621162     0.16200
O551        O  0.09035924  0.61103487  0.62896183    -0.26200
C552        C  0.10196737  0.60271338  0.61338337     0.06000
C553        C  0.08524821  0.58090669  0.60481146    -0.31100
O554        O  0.99137243  0.54274260  0.63045651    -0.22900
C555        C  0.97918890  0.55255206  0.64559937    -0.02900
C556        C  0.99653718  0.57381236  0.65416288    -0.17300
H557        H  0.04829823  0.61103313  0.65579223     0.20700
H558        H  0.03410866  0.54205115  0.60364988     0.19000
H559        H  0.08972433  0.57027627  0.59212253     0.19000
H560        H  0.99154024  0.58580778  0.66632702     0.14800
C561        C  0.65314447  0.92889187  0.63833844     0.30300
C562        C  0.65796418  0.89874144  0.63494669    -0.36100
C563        C  0.68727622  0.89089949  0.63026440     0.16300
C564        C  0.71013445  0.91136753  0.62889960     0.22100
C565        C  0.70545975  0.94134674  0.63264636    -0.34200
C566        C  0.67626010  0.94913762  0.63743447     0.16200
O567        O  0.62735334  0.94136950  0.64232855    -0.26200
C568        C  0.63422550  0.96984275  0.64414695     0.06000
C569        C  0.66431695  0.97596325  0.64140247    -0.31100
O570        O  0.73524978  0.89961342  0.62314311    -0.22900
C571        C  0.72850108  0.87123203  0.62096361    -0.02900
C572        C  0.69907082  0.86437607  0.62532030    -0.17300
H573        H  0.64003688  0.88267222  0.63555607     0.20700
H574        H  0.72319336  0.95754848  0.63153003     0.19000
H575        H  0.67557802  0.99715069  0.64198150     0.19000
H576        H  0.68775396  0.84327518  0.62420543     0.14800
C577        C  0.90995023  0.86805024  0.61797326     0.30300
C578        C  0.93502354  0.88597313  0.61458103    -0.36100
C579        C  0.95595424  0.88828366  0.62856203     0.16300
C580        C  0.95249773  0.87386104  0.64472022     0.22100
C581        C  0.92745200  0.85606749  0.64812914    -0.34200
C582        C  0.90656099  0.85381934  0.63419593     0.16200
O583        O  0.88750968  0.86273715  0.60687831    -0.26200
C584        C  0.86961649  0.84490198  0.61618856     0.06000
C585        C  0.88037276  0.83863004  0.63323245    -0.31100
O586        O  0.97511663  0.87841213  0.65571724    -0.22900
C587        C  0.99326835  0.89611482  0.64654803    -0.02900
C588        C  0.98251239  0.90306913  0.62957979    -0.17300
H589        H  0.93805643  0.89722049  0.60193051     0.20700
H590        H  0.92454484  0.84462393  0.66072777     0.19000
H591        H  0.87021113  0.82498586  0.64346535     0.19000
H592        H  0.99309165  0.91642257  0.61936160     0.14800
C593        C  0.83053871  0.63586926  0.62652342     0.30300
C594        C  0.82671853  0.65373139  0.61137830    -0.36100
C595        C  0.81307314  0.68115329  0.61429219     0.16300
C596        C  0.80350936  0.69033517  0.63094910     0.22100
C597        C  0.80694233  0.67224037  0.64610427    -0.34200
C598        C  0.82092536  0.64484411  0.64321394     0.16200
O599        O  0.84508015  0.61058075  0.62701282    -0.26200
C600        C  0.84484487  0.60313833  0.64421250     0.06000
C601        C  0.82999134  0.62351301  0.65496542    -0.31100
O602        O  0.79370407  0.71785321  0.63080708    -0.22900
C603        C  0.79710744  0.72626086  0.61386346    -0.02900
C604        C  0.80891349  0.70432561  0.60297165    -0.17300
H605        H  0.83505014  0.64725138  0.59836766     0.20700
H606        H  0.80041702  0.67955573  0.65932080     0.19000
H607        H  0.82750825  0.62330073  0.66936848     0.19000
H608        H  0.81508365  0.70582907  0.58899922     0.14800
C609        C  0.64578315  0.27085187  0.11661499     0.30300
C610        C  0.62743888  0.29527050  0.11300443    -0.36100
C611        C  0.62217380  0.31434429  0.12740721     0.16300
C612        C  0.63428015  0.30987663  0.14420254     0.22100
C613        C  0.65297901  0.28563056  0.14775739    -0.34200
C614        C  0.65814149  0.26641910  0.13335179     0.16200
O615        O  0.65122897  0.24882464  0.10558196    -0.26200
C616        C  0.66736410  0.23006109  0.11531265     0.06000
C617        C  0.67263236  0.23991817  0.13266155    -0.31100
O618        O  0.62543712  0.32994566  0.15585162    -0.22900
C619        C  0.60748693  0.34739855  0.14634692    -0.02900
C620        C  0.60463144  0.33880710  0.12858308    -0.17300
H621        H  0.61713047  0.29857987  0.10004442     0.20700
H622        H  0.66207720  0.28153044  0.16095385     0.19000
H623        H  0.68364666  0.22830824  0.14349363     0.19000
H624        H  0.59132395  0.34895967  0.11813865     0.14800
C625        C  0.56881203  0.09312789  0.13222840     0.30300
C626        C  0.55096800  0.08970606  0.14745055    -0.36100
C627        C  0.52540557  0.07219537  0.14536080     0.16300
C628        C  0.51782023  0.05878133  0.12939367     0.22100
C629        C  0.53603415  0.06182365  0.11414971    -0.34200
C630        C  0.56167873  0.07955555  0.11622999     0.16200
O631        O  0.59306870  0.10948990  0.13117413    -0.26200
C632        C  0.60181250  0.10643055  0.11431147     0.06000
C633        C  0.58325168  0.08796824  0.10431394    -0.31100
O634        O  0.49161035  0.04528525  0.13022556    -0.22900
C635        C  0.48252985  0.05015475  0.14694654    -0.02900
C636        C  0.50275112  0.06659711  0.15696259    -0.17300
H637        H  0.55622555  0.10064591  0.15994430     0.20700
H638        H  0.53017275  0.05182940  0.10146431     0.19000
H639        H  0.58528999  0.08184037  0.09037077     0.19000
H640        H  0.50031614  0.07462349  0.17052712     0.14800
C641        C  0.31353578  0.18631012  0.11875255     0.30300
C642        C  0.32989758  0.16102593  0.11404752    -0.36100
C643        C  0.33766372  0.14212616  0.12818469     0.16300
C644        C  0.32972540  0.14758042  0.14572699     0.22100
C645        C  0.31291021  0.17260686  0.15037768    -0.34200
C646        C  0.30520055  0.19155874  0.13625407     0.16200
O647        O  0.30653809  0.20837533  0.10801046    -0.26200
C648        C  0.29332404  0.22783190  0.11874445     0.06000
C649        C  0.29158560  0.21847284  0.13642178    -0.31100
O650        O  0.34026952  0.12747377  0.15687320    -0.22900
C651        C  0.35510892  0.10892453  0.14631082    -0.02900
C652        C  0.35424008  0.11690542  0.12834282    -0.17300
H653        H  0.33698881  0.15692889  0.10043464     0.20700
H654        H  0.30702881  0.17742322  0.16410887     0.19000
H655        H  0.28351499  0.23067260  0.14790093     0.19000
H656        H  0.36447719  0.10579190  0.11708084     0.14800
C657        C  0.44202850  0.39551266  0.13621967     0.30300
C658        C  0.42253897  0.39448995  0.12148434    -0.36100
C659        C  0.39692164  0.37688419  0.12354407     0.16300
C660        C  0.39075520  0.36162026  0.13911584     0.22100
C661        C  0.41018587  0.36268231  0.15386193    -0.34200
C662        C  0.43594336  0.38004627  0.15173194     0.16200
O663        O  0.46809277  0.40917486  0.13682228    -0.26200
C664        C  0.47886551  0.40231587  0.15289643     0.06000
C665        C  0.45981487  0.38429041  0.16278664    -0.31100
O666        O  0.36588497  0.34607636  0.13801256    -0.22900
C667        C  0.35609616  0.35127684  0.12149517    -0.02900
C668        C  0.37445009  0.37029916  0.11184666    -0.17300
H669        H  0.42737758  0.40603455  0.10913780     0.20700
H670        H  0.40584921  0.35032383  0.16598751     0.19000
H671        H  0.46358061  0.37477082  0.17588926     0.19000
H672        H  0.37169995  0.37796663  0.09822295     0.14800
C673        C  0.26550817  0.91365812  0.12280542     0.30300
C674        C  0.27074075  0.94376575  0.12578164    -0.36100
C675        C  0.29854764  0.95089058  0.13319846     0.16300
C676        C  0.31997855  0.92990384  0.13723354     0.22100
C677        C  0.31459976  0.89962538  0.13441512    -0.34200
C678        C  0.28654481  0.89243468  0.12713693     0.16200
O679        O  0.24118563  0.90230833  0.11570241    -0.26200
C680        C  0.24649570  0.87342522  0.11555878     0.06000
C681        C  0.27428866  0.86581343  0.12259538    -0.31100
O682        O  0.34456420  0.94177009  0.14389846    -0.22900
C683        C  0.33849082  0.97058838  0.14427716    -0.02900
C684        C  0.31020900  0.97753964  0.13783872    -0.17300
H685        H  0.25427652  0.96047271  0.12251131     0.20700
H686        H  0.33109139  0.88292032  0.13763433     0.19000
H687        H  0.28415417  0.84403827  0.12382466     0.19000
H688        H  0.29984448  0.99910626  0.13671784     0.14800
C689        C  0.79682431  0.00992248  0.13855876     0.30300
C690        C  0.76634869  0.01603943  0.13607315    -0.36100
C691        C  0.75961644  0.04420904  0.12937333     0.16300
C692        C  0.78134247  0.06501783  0.12555529     0.22100
C693        C  0.81183115  0.05877869  0.12787911    -0.34200
C694        C  0.81859516  0.03051573  0.13443318     0.16200
O695        O  0.80816895  0.98495518  0.14457200    -0.26200
C696        C  0.83755056  0.98953448  0.14414364     0.06000
C697        C  0.84542007  0.01744802  0.13793569    -0.31100
O698        O  0.77000893  0.08992809  0.11940506    -0.22900
C699        C  0.74071702  0.08488793  0.11916708    -0.02900
C700        C  0.73289564  0.05681096  0.12515286    -0.17300
H701        H  0.74914194  0.99992465  0.13905260     0.20700
H702        H  0.82905413  0.07476965  0.12470256     0.19000
H703        H  0.86759515  0.02669278  0.13628386     0.19000
H704        H  0.71080165  0.04710208  0.12609753     0.14800
C705        C  0.06582446  0.87887704  0.11333475     0.30300
C706        C  0.03953005  0.89436058  0.10893569    -0.36100
C707        C  0.01888760  0.89827408  0.12291026     0.16300
C708        C  0.02384841  0.88761937  0.13997852     0.22100
C709        C  0.05026930  0.87266164  0.14443432    -0.34200
C710        C  0.07082001  0.86878716  0.13052014     0.16200
O711        O  0.08747078  0.87124481  0.10222923    -0.26200
C712        C  0.10649480  0.85622981  0.11252871     0.06000
C713        C  0.09736934  0.85418721  0.13024162    -0.31100
O714        O  0.00094922  0.89203787  0.15070689    -0.22900
C715        C  0.98105991  0.90593629  0.14048855    -0.02900
C716        C  0.99099178  0.91060405  0.12306487    -0.17300
H717        H  0.03513116  0.90210877  0.09548523     0.20700
H718        H  0.05416877  0.86393390  0.15772092     0.19000
H719        H  0.10832441  0.84282575  0.14119352     0.19000
H720        H  0.97897271  0.92054544  0.11201051     0.14800
C721        C  0.14149442  0.43401549  0.13446718     0.30300
C722        C  0.14499606  0.40413530  0.12991787    -0.36100
C723        C  0.17457572  0.39423341  0.12836570     0.16300
C724        C  0.19893510  0.41260106  0.13091231     0.22100
C725        C  0.19545812  0.44236622  0.13557843    -0.34200
C726        C  0.16593929  0.45216899  0.13726636     0.16200
O727        O  0.11591574  0.44789725  0.13686835    -0.26200
C728        C  0.12421938  0.47514654  0.14132521     0.06000
C729        C  0.15501924  0.47913930  0.14178591    -0.31100
O730        O  0.22448763  0.39922778  0.12781240    -0.22900
C731        C  0.21643864  0.37190511  0.12341152    -0.02900
C732        C  0.18570011  0.36733303  0.12362959    -0.17300
H733        H  0.12603519  0.38969645  0.12768807     0.20700
H734        H  0.21441817  0.45689396  0.13759954     0.19000
H735        H  0.16746526  0.49889497  0.14522372     0.19000
H736        H  0.17340681  0.34760980  0.11994478     0.14800
C737        C  0.12528546  0.64407717  0.12196793     0.30300
C738        C  0.13165132  0.66087323  0.10667334    -0.36100
C739        C  0.14664559  0.68763434  0.10966425     0.16300
C740        C  0.15501198  0.69704461  0.12652779     0.22100
C741        C  0.14872705  0.68019666  0.14180587    -0.34200
C742        C  0.13354160  0.65356177  0.13883302     0.16200
O743        O  0.11031817  0.61902070  0.12235924    -0.26200
C744        C  0.10895888  0.61246390  0.13967250     0.06000
C745        C  0.12304490  0.63307084  0.15058638    -0.31100
O746        O  0.16722915  0.72352880  0.12635903    -0.22900
C747        C  0.16658292  0.73121469  0.10920547    -0.02900
C748        C  0.15410126  0.70976575  0.09815564    -0.17300
H749        H  0.12467647  0.65395259  0.09344741     0.20700
H750        H  0.15452956  0.68772916  0.15510969     0.19000
H751        H  0.12475982  0.63318701  0.16503473     0.19000
H752        H  0.14987993  0.71093721  0.08390692     0.14800
C753        C  0.67527745  0.56274887  0.12732786     0.30300
C754        C  0.64549988  0.55631374  0.13188266    -0.36100
C755        C  0.63981169  0.52726463  0.13759823     0.16300
C756        C  0.66196089  0.50608730  0.13895635     0.22100
C757        C  0.69169057  0.51244272  0.13427856    -0.34200
C758        C  0.69729888  0.54139014  0.12837688     0.16200
O759        O  0.68559226  0.58841301  0.12155495    -0.26200
C760        C  0.71453273  0.58331315  0.11874581     0.06000
C761        C  0.72305784  0.55444796  0.12271630    -0.31100
O762        O  0.65172245  0.48052059  0.14488146    -0.22900
C763        C  0.62258482  0.48529741  0.14716826    -0.02900
C764        C  0.61387585  0.51394414  0.14281394    -0.17300
H765        H  0.62797991  0.57276910  0.13097689     0.20700
H766        H  0.70919670  0.49596313  0.13513792     0.19000
H767        H  0.74504621  0.54458418  0.12158905     0.19000
H768        H  0.59175490  0.52359748  0.14361116     0.14800
C769        C  0.93932520  0.58158671  0.13958015     0.30300
C770        C  0.91449170  0.59867111  0.14434539    -0.36100
C771        C  0.89265103  0.60219312  0.13111456     0.16300
C772        C  0.89503753  0.58986461  0.11427677     0.22100
C773        C  0.91990797  0.57255104  0.10952056    -0.34200
C774        C  0.94180174  0.56889663  0.12284068     0.16200
O775        O  0.96267558  0.57631784  0.14978864    -0.26200
C776        C  0.98035890  0.55986039  0.13958703     0.06000
C777        C  0.96859554  0.55438037  0.12265215    -0.31100
O778        O  0.87193359  0.59636078  0.10398590    -0.22900
C779        C  0.85464588  0.61291327  0.11445786    -0.02900
C780        C  0.86638705  0.61725388  0.13146108    -0.17300
H781        H  0.91246937  0.60872229  0.15742791     0.20700
H782        H  0.92210652  0.56280284  0.09636626     0.19000
H783        H  0.97868681  0.54231081  0.11170822     0.19000
H784        H  0.85690353  0.62968593  0.14245465     0.14800
C785        C  0.82484122  0.81182228  0.14286293     0.30300
C786        C  0.80904977  0.78624488  0.14792725    -0.36100
C787        C  0.80034935  0.76733297  0.13392797     0.16300
C788        C  0.80687377  0.77323384  0.11622679     0.22100
C789        C  0.82224432  0.79890772  0.11117157    -0.34200
C790        C  0.83087435  0.81773762  0.12510667     0.16200
O791        O  0.83639942  0.83189232  0.15370036    -0.26200
C792        C  0.84985868  0.85081228  0.14266399     0.06000
C793        C  0.84704606  0.84317774  0.12475003    -0.31100
O794        O  0.79906177  0.75151753  0.10546584    -0.22900
C795        C  0.78709009  0.73145570  0.11631068    -0.02900
C796        C  0.78706680  0.74011783  0.13419038    -0.17300
H797        H  0.80463922  0.78103401  0.16180953     0.20700
H798        H  0.82793976  0.80340609  0.09736589     0.19000
H799        H  0.85618965  0.85441563  0.11318926     0.19000
H800        H  0.78018907  0.72739801  0.14575057     0.14800
C801        C  0.76036481  0.30138036  0.48560597     0.30300
C802        C  0.76758406  0.29656942  0.50366124    -0.36100
C803        C  0.74380306  0.29894728  0.51582794     0.16300
C804        C  0.71498828  0.30587964  0.51060364     0.22100
C805        C  0.70771944  0.31039185  0.49255611    -0.34200
C806        C  0.73139635  0.30769765  0.48039666     0.16200
O807        O  0.77907899  0.30055020  0.47196615    -0.26200
C808        C  0.76171026  0.30602813  0.45788038     0.06000
C809        C  0.73187898  0.31059202  0.46230199    -0.31100
O810        O  0.69651186  0.30825386  0.52425904    -0.22900
C811        C  0.71362920  0.30252606  0.53841344    -0.02900
C812        C  0.74322754  0.29644289  0.53399245    -0.17300
H813        H  0.79016907  0.29153870  0.50793408     0.20700
H814        H  0.68521852  0.31583306  0.48830574     0.19000
H815        H  0.71334820  0.31558516  0.45345559     0.19000
H816        H  0.76176567  0.29187391  0.54291285     0.14800
C817        C  0.91217701  0.97837559  0.23406502     0.30300
C818        C  0.91499674  0.00311847  0.24528618    -0.36100
C819        C  0.91364987  0.99746764  0.26372515     0.16300
C820        C  0.91020179  0.96934769  0.27065167     0.22100
C821        C  0.90731653  0.94461189  0.25942686    -0.34200
C822        C  0.90829544  0.95030904  0.24098949     0.16200
O823        O  0.91180429  0.97869072  0.21642617    -0.26200
C824        C  0.90748459  0.95049644  0.21201194     0.06000
C825        C  0.90511565  0.93181693  0.22672484    -0.31100
O826        O  0.90906331  0.96921518  0.28828359    -0.22900
C827        C  0.91149860  0.99763607  0.29270237    -0.02900
C828        C  0.91441333  0.01624812  0.27798316    -0.17300
H829        H  0.91752273  0.02527773  0.24000309     0.20700
H830        H  0.90404005  0.92254033  0.26469886     0.19000
H831        H  0.90115446  0.90818635  0.22686281     0.19000
H832        H  0.91649705  0.04010899  0.27783434     0.14800
C833        C  0.84335020  0.14182151  0.36403662     0.30300
C834        C  0.82512877  0.16608583  0.35964137    -0.36100
C835        C  0.82031383  0.18675033  0.37335388     0.16300
C836        C  0.83265539  0.18374911  0.39020507     0.22100
C837        C  0.85063888  0.15940182  0.39464349    -0.34200
C838        C  0.85545251  0.13878677  0.38094566     0.16200
O839        O  0.85138904  0.12020873  0.35318385    -0.26200
C840        C  0.86886386  0.10317884  0.36329546     0.06000
C841        C  0.87214858  0.11362353  0.38068577    -0.31100
O842        O  0.82682862  0.20651934  0.40062552    -0.22900
C843        C  0.81037232  0.22427206  0.39038750    -0.02900
C844        C  0.80544602  0.21309396  0.37329842    -0.17300
H845        H  0.81582478  0.16893076  0.34637641     0.20700
H846        H  0.86071428  0.15703859  0.40774277     0.19000
H847        H  0.88508230  0.10410593  0.39150831     0.19000
H848        H  0.79393643  0.22354364  0.36222108     0.14800
C849        C  0.06008353  0.47774467  0.22981343     0.30300
C850        C  0.06188996  0.45176308  0.24003340    -0.36100
C851        C  0.06424553  0.45567596  0.25858013     0.16300
C852        C  0.06449615  0.48326611  0.26650808     0.22100
C853        C  0.06296376  0.50924986  0.25627902    -0.34200
C854        C  0.06084037  0.50533773  0.23772792     0.16200
O855        O  0.05849734  0.47924537  0.21224535    -0.26200
C856        C  0.05840847  0.50813614  0.20887261     0.06000
C857        C  0.05984177  0.52549282  0.22419028    -0.31100
O858        O  0.06646824  0.48177791  0.28406098    -0.22900
C859        C  0.06775170  0.45290210  0.28740828    -0.02900
C860        C  0.06659713  0.43553649  0.27208327    -0.17300
H861        H  0.06170330  0.43004602  0.23393778     0.20700
H862        H  0.06355017  0.53097570  0.26235631     0.19000
H863        H  0.06066508  0.54937705  0.22515639     0.19000
H864        H  0.06712505  0.41165063  0.27108421     0.14800
C865        C  0.90357513  0.35853310  0.36967163     0.30300
C866        C  0.92263400  0.35992426  0.35483206    -0.36100
C867        C  0.94796139  0.37789106  0.35676717     0.16300
C868        C  0.95407770  0.39358486  0.37219629     0.22100
C869        C  0.93496849  0.39219058  0.38706397    -0.34200
C870        C  0.90971658  0.37400483  0.38518052     0.16200
O871        O  0.87896562  0.34265914  0.37086261    -0.26200
C872        C  0.86931004  0.34785619  0.38737193     0.06000
C873        C  0.88750267  0.36715902  0.39694658    -0.31100
O874        O  0.97969670  0.40800930  0.37129674    -0.22900
C875        C  0.99003794  0.40139886  0.35510094    -0.02900
C876        C  0.97123947  0.38278153  0.34546323    -0.17300
H877        H  0.91827390  0.34748374  0.34273735     0.20700
H878        H  0.93975043  0.40398788  0.39933547     0.19000
H879        H  0.88473012  0.37494839  0.41053533     0.19000
H880        H  0.97477450  0.37339436  0.33231338     0.14800
C881        C  0.25581261  0.15551333  0.52127246     0.30300
C882        C  0.26414950  0.15638099  0.50320112    -0.36100
C883        C  0.24062446  0.15814713  0.49081318     0.16300
C884        C  0.21089401  0.15893737  0.49581844     0.22100
C885        C  0.20259229  0.15888157  0.51392276    -0.34200
C886        C  0.22613643  0.15708827  0.52632167     0.16200
O887        O  0.27400741  0.15200869  0.53502220    -0.26200
C888        C  0.25575326  0.15153598  0.54905676     0.06000
C889        C  0.22575687  0.15479810  0.54448069    -0.31100
O890        O  0.19254945  0.15796437  0.48196551    -0.22900
C891        C  0.21083138  0.15685709  0.46794431    -0.02900
C892        C  0.24094487  0.15718701  0.47263385    -0.17300
H893        H  0.28729606  0.15476665  0.49906518     0.20700
H894        H  0.17937993  0.15913053  0.51803764     0.19000
H895        H  0.20647542  0.15464824  0.55323326     0.19000
H896        H  0.26020479  0.15543522  0.46392733     0.14800
C897        C  0.02892549  0.04966773  0.37913923     0.30300
C898        C  0.04624652  0.05340065  0.39465854    -0.36100
C899        C  0.07107076  0.07220596  0.39304376     0.16300
C900        C  0.07860707  0.08592339  0.37716204     0.22100
C901        C  0.06158646  0.08186685  0.36160517    -0.34200
C902        C  0.03653638  0.06347631  0.36329410     0.16200
O903        O  0.00297647  0.03585562  0.37811912    -0.26200
C904        C  0.99390913  0.04100870  0.36144639     0.06000
C905        C  0.01397858  0.05785501  0.35157138    -0.31100
O906        O  0.10189891  0.10353029  0.37882350    -0.22900
C907        C  0.10929489  0.10122011  0.39599889    -0.02900
C908        C  0.09097643  0.08202363  0.40553674    -0.17300
H909        H  0.04002452  0.04344782  0.40728981     0.20700
H910        H  0.06678990  0.09325545  0.34925211     0.19000
H911        H  0.01128789  0.06645185  0.33814333     0.19000
H912        H  0.09202682  0.07640147  0.41960184     0.14800
C913        C  0.12446068  0.31445873  0.37840491     0.30300
C914        C  0.12562936  0.29725040  0.39398843    -0.36100
C915        C  0.14139911  0.27058601  0.39268383     0.16300
C916        C  0.15525299  0.26146101  0.37713866     0.22100
C917        C  0.15398568  0.27867523  0.36148123    -0.34200
C918        C  0.13805621  0.30538282  0.36276465     0.16200
O919        O  0.11033052  0.33982808  0.37661315    -0.26200
C920        C  0.11477671  0.34718070  0.35960112     0.06000
C921        C  0.13190186  0.32661680  0.35027881    -0.31100
O922        O  0.16825407  0.23539637  0.37891012    -0.22900
C923        C  0.16253461  0.22782425  0.39578237    -0.02900
C924        C  0.14586526  0.24882472  0.40496619    -0.17300
H925        H  0.11468389  0.30402932  0.40622636     0.20700
H926        H  0.16437362  0.27158807  0.34913516     0.19000
H927        H  0.13845801  0.32707869  0.33634631     0.19000
H928        H  0.13774559  0.24788388  0.41859414     0.14800
C929        C  0.40657518  0.95823203  0.26971597     0.30300
C930        C  0.40611924  0.95035937  0.25156675    -0.36100
C931        C  0.40481684  0.97388845  0.23934370     0.16300
C932        C  0.40411334  0.00318111  0.24457150     0.22100
C933        C  0.40516374  0.01106336  0.26272439    -0.34200
C934        C  0.40642774  0.98753136  0.27495602     0.16200
O935        O  0.40570995  0.93983427  0.28341341    -0.26200
C936        C  0.40522262  0.95760646  0.29758766     0.06000
C937        C  0.40591366  0.98747899  0.29316161    -0.31100
O938        O  0.40185185  0.02152350  0.23087284    -0.22900
C939        C  0.40124805  0.00370797  0.21670417    -0.02900
C940        C  0.40307587  0.97387843  0.22117260    -0.17300
H941        H  0.40599549  0.92748420  0.24728556     0.20700
H942        H  0.40435408  0.03391145  0.26702558     0.19000
H943        H  0.40486203  0.00634760  0.30205541     0.19000
H944        H  0.40286300  0.95495394  0.21229849     0.14800
C945        C  0.28448709  0.06612491  0.38913293     0.30300
C946        C  0.31434600  0.06073054  0.38428815    -0.36100
C947        C  0.32091266  0.03176800  0.37875589     0.16300
C948        C  0.29944329  0.00983829  0.37773569     0.22100
C949        C  0.26970866  0.01515770  0.38270337    -0.34200
C950        C  0.26329826  0.04388852  0.38855025     0.16200
O951        O  0.27331341  0.09147711  0.39479526    -0.26200
C952        C  0.24477646  0.08512903  0.39810252     0.06000
C953        C  0.23731276  0.05588822  0.39453004    -0.31100
O954        O  0.31030626  0.98453581  0.37190689    -0.22900
C955        C  0.33919290  0.99016325  0.36937206    -0.02900
C956        C  0.34715766  0.01914409  0.37346823    -0.17300
H957        H  0.33127596  0.07783342  0.38489152     0.20700
H958        H  0.25279456  0.99803196  0.38215561     0.19000
H959        H  0.21576802  0.04518090  0.39595718     0.19000
H960        H  0.36895929  0.02944693  0.37242810     0.14800
C961        C  0.25484654  0.64330816  0.48955442     0.30300
C962        C  0.26329135  0.64375426  0.50764686    -0.36100
C963        C  0.23985347  0.64259188  0.52011131     0.16300
C964        C  0.21012763  0.64080384  0.51515920     0.22100
C965        C  0.20167729  0.64045238  0.49704769    -0.34200
C966        C  0.22510844  0.64194345  0.48457475     0.16200
O967        O  0.27307572  0.64412722  0.47568288    -0.26200
C968        C  0.25475948  0.64353824  0.46163774     0.06000
C969        C  0.22467352  0.64225292  0.46634594    -0.31100
O970        O  0.19193713  0.63980354  0.52907451    -0.22900
C971        C  0.21026979  0.64118073  0.54311010    -0.02900
C972        C  0.24030878  0.64294940  0.53832590    -0.17300
H973        H  0.28650904  0.64500871  0.51172318     0.20700
H974        H  0.17846187  0.63922386  0.49296637     0.19000
H975        H  0.20537155  0.64129721  0.45759493     0.19000
H976        H  0.25964876  0.64421421  0.54703294     0.14800
C977        C  0.15027626  0.52535756  0.36827307     0.30300
C978        C  0.15359546  0.55410604  0.37511974    -0.36100
C979        C  0.18304411  0.56304423  0.37884716     0.16300
C980        C  0.20742226  0.54474147  0.37632751     0.22100
C981        C  0.20413091  0.51614449  0.36939410    -0.34200
C982        C  0.17481562  0.50741877  0.36540322     0.16200
O983        O  0.12488625  0.51236522  0.36378888    -0.26200
C984        C  0.13345994  0.48593261  0.35786377     0.06000
C985        C  0.16421827  0.48168933  0.35849071    -0.31100
O986        O  0.23279598  0.55720715  0.38118341    -0.22900
C987        C  0.22466697  0.58400274  0.38663457    -0.02900
C988        C  0.19401897  0.58898475  0.38544480    -0.17300
H989        H  0.13460516  0.56848882  0.37733825     0.20700
H990        H  0.22310918  0.50171133  0.36725251     0.19000
H991        H  0.17686015  0.46234248  0.35454260     0.19000
H992        H  0.18163907  0.60852215  0.38933974     0.14800
C993        C  0.31331862  0.76189996  0.37599102     0.30300
C994        C  0.31872398  0.77991839  0.36101194    -0.36100
C995        C  0.33264500  0.80718102  0.36449781     0.16300
C996        C  0.34059871  0.81601886  0.38154155     0.22100
C997        C  0.33508177  0.79812752  0.39646868    -0.34200
C998        C  0.32129134  0.77093911  0.39298798     0.16200
O999        O  0.30179577  0.73500330  0.37584543    -0.26200
C1000       C  0.30239939  0.72690994  0.39297393     0.06000
C1001       C  0.31431925  0.74834762  0.40421472    -0.31100
O1002       O  0.35425138  0.84180743  0.38174254    -0.22900
C1003       C  0.35505625  0.84971302  0.36463036    -0.02900
C1004       C  0.34191203  0.82910244  0.35323928    -0.17300
H1005       H  0.31302402  0.77294102  0.34758292     0.20700
H1006       H  0.34163378  0.80470777  0.40983429     0.19000
H1007       H  0.31816431  0.74705028  0.41849771     0.19000
H1008       H  0.34002490  0.82992121  0.33880807     0.14800
C1009       C  0.56585438  0.47023598  0.27777423     0.30300
C1010       C  0.56418320  0.44466930  0.26714736    -0.36100
C1011       C  0.56452016  0.44930212  0.24858962     0.16300
C1012       C  0.56610874  0.47719267  0.24109243     0.22100
C1013       C  0.56799373  0.50266615  0.25169295    -0.34200
C1014       C  0.56792751  0.49802901  0.27019532     0.16200
O1015       O  0.56599300  0.47116443  0.29539442    -0.26200
C1016       C  0.56839726  0.49987310  0.29906942     0.06000
C1017       C  0.56978485  0.51764386  0.28394059    -0.31100
O1018       O  0.56600324  0.47653761  0.22351121    -0.22900
C1019       C  0.56455132  0.44789433  0.21963909    -0.02900
C1020       C  0.56363775  0.42978454  0.23468052    -0.17300
H1021       H  0.56284279  0.42275455  0.27293561     0.20700
H1022       H  0.56953530  0.52456897  0.24590359     0.19000
H1023       H  0.57179126  0.54148519  0.28321128     0.19000
H1024       H  0.56248912  0.40587870  0.23524972     0.14800
C1025       C  0.67207328  0.44670307  0.37502572     0.30300
C1026       C  0.70255922  0.44087444  0.37732985    -0.36100
C1027       C  0.70989254  0.41163724  0.38151980     0.16300
C1028       C  0.68876216  0.38949783  0.38320046     0.22100
C1029       C  0.65811493  0.39543420  0.38111064    -0.34200
C1030       C  0.65071724  0.42484707  0.37704410     0.16200
O1031       O  0.66047746  0.47229970  0.37043559    -0.26200
C1032       C  0.63129934  0.46695330  0.36967031     0.06000
C1033       C  0.62375577  0.43786719  0.37374128    -0.31100
O1034       O  0.70085733  0.36370056  0.38716687    -0.22900
C1035       C  0.72997214  0.36964567  0.38813857    -0.02900
C1036       C  0.73688675  0.39906446  0.38480518    -0.17300
H1037       H  0.71939236  0.45791882  0.37585010     0.20700
H1038       H  0.64129382  0.37835858  0.38249187     0.19000
H1039       H  0.60184245  0.42765234  0.37360670     0.19000
H1040       H  0.75861744  0.40966038  0.38502781     0.14800
C1041       C  0.40488739  0.60083853  0.38030635     0.30300
C1042       C  0.42586607  0.60102182  0.36644256    -0.36100
C1043       C  0.44985712  0.58146441  0.36838935     0.16300
C1044       C  0.45327729  0.56318713  0.38306313     0.22100
C1045       C  0.43237173  0.56322240  0.39706797    -0.34200
C1046       C  0.40811340  0.58264212  0.39503836     0.16200
O1047       O  0.38009878  0.61642019  0.38076697    -0.26200
C1048       C  0.36720266  0.60816684  0.39596295     0.06000
C1049       C  0.38360675  0.58731021  0.40551022    -0.31100
O1050       O  0.47765860  0.54684145  0.38206983    -0.22900
C1051       C  0.48972179  0.55473664  0.36652171    -0.02900
C1052       C  0.47343157  0.57617027  0.35745413    -0.17300
H1053       H  0.42339963  0.61510585  0.35482004     0.20700
H1054       H  0.43467138  0.54891067  0.40859725     0.19000
H1055       H  0.37791694  0.57666390  0.41802588     0.19000
H1056       H  0.47861843  0.58677054  0.34484131     0.14800
C1057       C  0.73761445  0.80882393  0.48771504     0.30300
C1058       C  0.76279728  0.80815850  0.49889227    -0.36100
C1059       C  0.75711226  0.80907270  0.51729493     0.16300
C1060       C  0.72857055  0.81019445  0.52430620     0.22100
C1061       C  0.70326735  0.81079061  0.51309281    -0.34200
C1062       C  0.70899600  0.81024779  0.49461083     0.16200
O1063       O  0.73798251  0.80900387  0.47010385    -0.26200
C1064       C  0.70926521  0.81073767  0.46558032     0.06000
C1065       C  0.69012171  0.81160089  0.48024978    -0.31100
O1066       O  0.72865369  0.81126231  0.54196605    -0.22900
C1067       C  0.75763213  0.81101088  0.54621707    -0.02900
C1068       C  0.77631989  0.80966237  0.53141824    -0.17300
H1069       H  0.78531242  0.80744445  0.49358860     0.20700
H1070       H  0.68077157  0.81204801  0.51838929     0.19000
H1071       H  0.66595399  0.81324232  0.48029543     0.19000
H1072       H  0.80053698  0.80926687  0.53113414     0.14800
C1073       C  0.77174132  0.91381549  0.38999829     0.30300
C1074       C  0.77786247  0.94348020  0.38588151    -0.36100
C1075       C  0.80679137  0.94946665  0.37961634     0.16300
C1076       C  0.82848995  0.92791198  0.37787306     0.22100
C1077       C  0.82240869  0.89823692  0.38211086    -0.34200
C1078       C  0.79324648  0.89212823  0.38803509     0.16200
O1079       O  0.74574518  0.90307890  0.39522222    -0.26200
C1080       C  0.75054911  0.87410318  0.39646384     0.06000
C1081       C  0.77969693  0.86598446  0.39219051    -0.31100
O1082       O  0.85368331  0.93836542  0.37114781    -0.22900
C1083       C  0.84783033  0.96687206  0.36838959    -0.02900
C1084       C  0.81906334  0.97502005  0.37342572    -0.17300
H1085       H  0.76098599  0.96054263  0.38697598     0.20700
H1086       H  0.83896116  0.88100552  0.38040607     0.19000
H1087       H  0.78934116  0.84402508  0.39200298     0.19000
H1088       H  0.80858586  0.99653732  0.37234505     0.14800
C1089       C  0.56611600  0.87779646  0.39339655     0.30300
C1090       C  0.54021820  0.89377413  0.39777790    -0.36100
C1091       C  0.51947807  0.89775230  0.38387080     0.16300
C1092       C  0.52381495  0.88658870  0.36687258     0.22100
C1093       C  0.54980809  0.87089741  0.36244707    -0.34200
C1094       C  0.57059751  0.86710451  0.37630190     0.16200
O1095       O  0.58806327  0.87063613  0.40441364    -0.26200
C1096       C  0.60683316  0.85536522  0.39415495     0.06000
C1097       C  0.59718942  0.85256983  0.37655935    -0.31100
O1098       O  0.50092859  0.89169628  0.35617720    -0.22900
C1099       C  0.48181433  0.90656228  0.36640615    -0.02900
C1100       C  0.49215500  0.91107711  0.38374116    -0.17300
H1101       H  0.53631152  0.90213065  0.41113769     0.20700
H1102       H  0.55336388  0.86188442  0.34920752     0.19000
H1103       H  0.60793610  0.84094027  0.36566306     0.19000
H1104       H  0.48074914  0.92171382  0.39476538     0.14800
C1105       C  0.63494362  0.64780957  0.36892600     0.30300
C1106       C  0.65059356  0.67358023  0.36413395    -0.36100
C1107       C  0.65537473  0.69418827  0.37790487     0.16300
C1108       C  0.64522676  0.68978394  0.39514230     0.22100
C1109       C  0.62966166  0.66403689  0.39993218    -0.34200
C1110       C  0.62505776  0.64341299  0.38621846     0.16200
O1111       O  0.62764229  0.62577854  0.35818667    -0.26200
C1112       C  0.61302791  0.60707408  0.36879670     0.06000
C1113       C  0.61072484  0.61687499  0.38635926    -0.31100
O1114       O  0.65109072  0.71234710  0.40573655    -0.22900
C1115       C  0.66538702  0.73143405  0.39523285    -0.02900
C1116       C  0.66878258  0.72132784  0.37776132    -0.17300
H1117       H  0.65827552  0.67739911  0.35060300     0.20700
H1118       H  0.62144833  0.66047589  0.41337808     0.19000
H1119       H  0.59976468  0.60614391  0.39752448     0.19000
H1120       H  0.67871332  0.73274027  0.36650263     0.14800
C1121       C  0.72318883  0.15464272  0.98633573     0.30300
C1122       C  0.69859606  0.15474014  0.99802710    -0.36100
C1123       C  0.70533567  0.15186360  0.01630270     0.16300
C1124       C  0.73426219  0.14935249  0.02265773     0.22100
C1125       C  0.75877529  0.14900693  0.01097884    -0.34200
C1126       C  0.75203718  0.15164538  0.99272869     0.16200
O1127       O  0.72219335  0.15653610  0.96870341    -0.26200
C1128       C  0.75078368  0.15450136  0.96381599     0.06000
C1129       C  0.77027457  0.15143222  0.97818878    -0.31100
O1130       O  0.73545521  0.14735452  0.04024695    -0.22900
C1131       C  0.70690122  0.14837063  0.04520662    -0.02900
C1132       C  0.68715651  0.15104638  0.03090342    -0.17300
H1133       H  0.67582820  0.15676077  0.99321813     0.20700
H1134       H  0.78152176  0.14673251  0.01578045     0.19000
H1135       H  0.79436860  0.14900938  0.97791502     0.19000
H1136       H  0.66298419  0.15248804  0.03126312     0.14800
C1137       C  0.24794346  0.31222308  0.02305265     0.30300
C1138       C  0.25612339  0.31076869  0.00495361    -0.36100
C1139       C  0.23251294  0.31130728  0.99254948     0.16300
C1140       C  0.20286724  0.31347582  0.99756189     0.22100
C1141       C  0.19465565  0.31459614  0.01568215    -0.34200
C1142       C  0.21826591  0.31378479  0.02809087     0.16200
O1143       O  0.26637443  0.31224573  0.03687677    -0.26200
C1144       C  0.24822974  0.31361413  0.05094352     0.06000
C1145       C  0.21808043  0.31454631  0.04629869    -0.31100
O1146       O  0.18456448  0.31475901  0.98368178    -0.22900
C1147       C  0.20273648  0.31308184  0.96961056    -0.02900
C1148       C  0.23276726  0.31073441  0.97433366    -0.17300
H1149       H  0.27929010  0.30946270  0.00082299     0.20700
H1150       H  0.17150715  0.31619739  0.01981437     0.19000
H1151       H  0.19887684  0.31576520  0.05508298     0.19000
H1152       H  0.25201591  0.30958575  0.96558468     0.14800
C1153       C  0.90001510  0.50527658  0.74202634     0.30300
C1154       C  0.89320039  0.51279086  0.75976787    -0.36100
C1155       C  0.89816782  0.49064974  0.77257998     0.16300
C1156       C  0.90880848  0.46287816  0.76826223     0.22100
C1157       C  0.91601580  0.45549378  0.75053203    -0.34200
C1158       C  0.91126142  0.47773850  0.73771448     0.16200
O1159       O  0.89582964  0.52213455  0.72783183    -0.26200
C1160       C  0.90469820  0.50526932  0.71425043     0.06000
C1161       C  0.91467663  0.47747563  0.71959498    -0.31100
O1162       O  0.91052706  0.44522074  0.78231367    -0.22900
C1163       C  0.90120144  0.46208781  0.79578890    -0.02900
C1164       C  0.89335932  0.49055999  0.79054300    -0.17300
H1165       H  0.88420231  0.53422384  0.76329546     0.20700
H1166       H  0.92425956  0.43379557  0.74694103     0.19000
H1167       H  0.92226483  0.45939022  0.71127389     0.19000
H1168       H  0.88470653  0.50833868  0.79873618     0.14800
C1169       C  0.01237703  0.40841504  0.88534191     0.30300
C1170       C  0.02907732  0.40272357  0.90093139    -0.36100
C1171       C  0.05664808  0.38837562  0.89842355     0.16300
C1172       C  0.06699851  0.38034319  0.88171748     0.22100
C1173       C  0.05050993  0.38626483  0.86618036    -0.34200
C1174       C  0.02299311  0.40041905  0.86869299     0.16200
O1175       O  0.98514151  0.41971414  0.88457575    -0.26200
C1176       C  0.97840227  0.41890976  0.86721645     0.06000
C1177       C  0.00112787  0.40718695  0.85673191    -0.31100
O1178       O  0.09246872  0.36581417  0.88244067    -0.22900
C1179       C  0.09866847  0.36448329  0.89981357    -0.02900
C1180       C  0.07728417  0.37826130  0.91045833    -0.17300
H1181       H  0.02076328  0.40826225  0.91410022     0.20700
H1182       H  0.05819174  0.37947626  0.85308572     0.19000
H1183       H  0.00095873  0.40299301  0.84247308     0.19000
H1184       H  0.07663147  0.37980058  0.92490249     0.14800
C1185       C  0.84090692  0.32115103  0.88094289     0.30300
C1186       C  0.83748059  0.30263727  0.89580001    -0.36100
C1187       C  0.81951844  0.27765546  0.89323615     0.16300
C1188       C  0.80573909  0.27115036  0.87716486     0.22100
C1189       C  0.80898760  0.28989758  0.86226004    -0.34200
C1190       C  0.82713247  0.31497642  0.86481681     0.16200
O1191       O  0.85718596  0.34538453  0.88039496    -0.26200
C1192       C  0.85390969  0.35498204  0.86370759     0.06000
C1193       C  0.83546876  0.33699937  0.85334333    -0.31100
O1194       O  0.79154620  0.24548058  0.87759135    -0.22900
C1195       C  0.79638170  0.23567833  0.89416602    -0.02900
C1196       C  0.81347171  0.25486461  0.90446361    -0.17300
H1197       H  0.84854234  0.30711009  0.90840554     0.20700
H1198       H  0.79868010  0.28495173  0.84949493     0.19000
H1199       H  0.82912037  0.33981937  0.83946691     0.19000
H1200       H  0.82153826  0.25172119  0.91799694     0.14800
C1201       C  0.06234909  0.97591193  0.77462388     0.30300
C1202       C  0.06426943  0.94983716  0.76452365    -0.36100
C1203       C  0.06451073  0.95341090  0.74591166     0.16300
C1204       C  0.06248914  0.98076292  0.73777433     0.22100
C1205       C  0.06074454  0.00691920  0.74789256    -0.34200
C1206       C  0.06096478  0.00336420  0.76655758     0.09800
O1207       O  0.06246979  0.97759229  0.79220381    -0.26200
C1208       C  0.06141502  0.00647348  0.79552811     0.06000
C1209       C  0.06052158  0.02368834  0.78008742    -0.31100
O1210       O  0.06329072  0.97889932  0.72017757    -0.22900
C1211       C  0.06617498  0.95003983  0.71705107    -0.02900
C1212       C  0.06715544  0.93309113  0.73254632    -0.17300
H1213       H  0.06589098  0.92828182  0.77076385     0.20700
H1214       H  0.05970146  0.02850953  0.74165323     0.19000
H1215       H  0.05981095  0.04756229  0.77901719     0.19000
H1216       H  0.06962190  0.90934889  0.73375780     0.14800
C1217       C  0.89817961  0.09093123  0.89268632     0.30300
C1218       C  0.92485484  0.07633653  0.89737671    -0.36100
C1219       C  0.94388625  0.06865380  0.88315061     0.16300
C1220       C  0.93727370  0.07511506  0.86553078     0.22100
C1221       C  0.91058338  0.08959635  0.86083923    -0.34200
C1222       C  0.89151808  0.09714130  0.87504073     0.16200
O1223       O  0.87721948  0.10032095  0.90379847    -0.26200
C1224       C  0.85689763  0.11270913  0.89309871     0.06000
C1225       C  0.86464244  0.11135439  0.87509274    -0.31100
O1226       O  0.95886145  0.06718221  0.85447217    -0.22900
C1227       C  0.97947837  0.05516265  0.86510625    -0.02900
C1228       C  0.97133535  0.05542218  0.88308093    -0.17300
H1229       H  0.93049519  0.07152118  0.91115748     0.20700
H1230       H  0.90521909  0.09493643  0.84708919     0.19000
H1231       H  0.85223844  0.11968221  0.86370641     0.19000
H1232       H  0.98433398  0.04810715  0.89448413     0.14800
C1233       C  0.14141298  0.20241887  0.88015691     0.30300
C1234       C  0.14216498  0.18275214  0.86557265    -0.36100
C1235       C  0.12435776  0.15722321  0.86715007     0.16300
C1236       C  0.10708010  0.15154048  0.88206139     0.22100
C1237       C  0.10607904  0.17128438  0.89650272    -0.34200
C1238       C  0.12384959  0.19668142  0.89493603     0.16200
O1239       O  0.15644742  0.22748896  0.88169641    -0.26200
C1240       C  0.14837868  0.23777719  0.89768480     0.06000
C1241       C  0.12805401  0.21959248  0.90645406    -0.31100
O1242       O  0.09264008  0.12620452  0.88095698    -0.22900
C1243       C  0.10057837  0.11543499  0.86510587    -0.02900
C1244       C  0.12020535  0.13380883  0.85584083    -0.17300
H1245       H  0.15580321  0.18695483  0.85389025     0.20700
H1246       H  0.09255514  0.16700687  0.90822532     0.19000
H1247       H  0.11779697  0.22287908  0.91941449     0.19000
H1248       H  0.13012647  0.13027279  0.84281457     0.14800
C1249       C  0.40504142  0.50351216  0.76480443     0.30300
C1250       C  0.40161123  0.51118216  0.74669528    -0.36100
C1251       C  0.40759876  0.48869429  0.73423884     0.16300
C1252       C  0.41627000  0.46056406  0.73925235     0.22100
C1253       C  0.42019761  0.45305495  0.75733514    -0.34200
C1254       C  0.41423469  0.47553325  0.76978433     0.16200
O1255       O  0.39919940  0.52059570  0.77870104    -0.26200
C1256       C  0.40486569  0.50337949  0.79276250     0.06000
C1257       C  0.41442820  0.47515268  0.78801933    -0.31100
O1258       O  0.41869986  0.44242760  0.72549191    -0.22900
C1259       C  0.41172874  0.45919545  0.71145982    -0.02900
C1260       C  0.40484899  0.48824626  0.71606964    -0.17300
H1261       H  0.39405169  0.53290703  0.74262521     0.20700
H1262       H  0.42663807  0.43099554  0.76143263     0.19000
H1263       H  0.41989947  0.45681278  0.79674521     0.19000
H1264       H  0.39761482  0.50602379  0.70737440     0.14800
C1265       C  0.29224118  0.44783361  0.87122634     0.30300
C1266       C  0.26207257  0.44273746  0.87530459    -0.36100
C1267       C  0.25537675  0.41491233  0.88253353     0.16300
C1268       C  0.27673661  0.39330049  0.88528680     0.22100
C1269       C  0.30696797  0.39841967  0.88118008    -0.34200
C1270       C  0.31377921  0.42648909  0.87422587     0.16200
O1271       O  0.30354067  0.47253502  0.86475664    -0.26200
C1272       C  0.33272823  0.46706509  0.86371903     0.06000
C1273       C  0.34046633  0.43881857  0.86946747    -0.31100
O1274       O  0.26545461  0.36911514  0.89257676    -0.22900
C1275       C  0.23662266  0.37559433  0.89469260    -0.02900
C1276       C  0.22909906  0.40371146  0.88865594    -0.17300
H1277       H  0.24510104  0.45949696  0.87330159     0.20700
H1278       H  0.32404384  0.38190551  0.88355953     0.19000
H1279       H  0.36248126  0.42887967  0.87002006     0.19000
H1280       H  0.20743940  0.41442310  0.88895144     0.14800
C1281       C  0.55917576  0.98395081  0.77035694     0.30300
C1282       C  0.55791185  0.00894291  0.75926436    -0.36100
C1283       C  0.56072462  0.00356975  0.74089069     0.16300
C1284       C  0.56412008  0.97548915  0.73390513     0.22100
C1285       C  0.56540361  0.95048982  0.74500059    -0.34200
C1286       C  0.56296275  0.95590309  0.76339368     0.16200
O1287       O  0.55807000  0.98398228  0.78795375    -0.26200
C1288       C  0.56136095  0.95564366  0.79230135     0.06000
C1289       C  0.56449029  0.93710543  0.77760176    -0.31100
O1290       O  0.56669444  0.97563533  0.71636042    -0.22900
C1291       C  0.56521467  0.00417006  0.71210032    -0.02900
C1292       C  0.56150665  0.02261747  0.72678578    -0.17300
H1293       H  0.55544494  0.03105857  0.76461080     0.20700
H1294       H  0.56857604  0.92844251  0.73968361     0.19000
H1295       H  0.56787511  0.91339154  0.77745007     0.19000
H1296       H  0.55979357  0.04650396  0.72701023     0.14800
C1297       C  0.67684336  0.07240992  0.88186888     0.30300
C1298       C  0.64756379  0.06737472  0.87566825    -0.36100
C1299       C  0.64066305  0.03798685  0.87112812     0.16300
C1300       C  0.66135529  0.01536862  0.87232035     0.22100
C1301       C  0.69043769  0.02036088  0.87854996    -0.34200
C1302       C  0.69714597  0.04950501  0.88332783     0.16200
O1303       O  0.68825221  0.09798479  0.88704159    -0.26200
C1304       C  0.71605885  0.09109882  0.89193357     0.06000
C1305       C  0.72274490  0.06129972  0.88997030    -0.31100
O1306       O  0.65039872  0.98967317  0.86733657    -0.22900
C1307       C  0.62218618  0.99568926  0.86312190    -0.02900
C1308       C  0.61472071  0.02537258  0.86520655    -0.17300
H1309       H  0.63128501  0.08501628  0.87461709     0.20700
H1310       H  0.70665067  0.00267605  0.87972272     0.19000
H1311       H  0.74354985  0.05003057  0.89292927     0.19000
H1312       H  0.59346083  0.03602373  0.86260824     0.14800
C1313       C  0.25637466  0.81617700  0.98822794     0.30300
C1314       C  0.26545114  0.81448476  0.00618728    -0.36100
C1315       C  0.24245688  0.81548807  0.01893961     0.16300
C1316       C  0.21263281  0.81817438  0.01433786     0.22100
C1317       C  0.20356860  0.81978467  0.99641204    -0.34200
C1318       C  0.22650575  0.81858582  0.98368178     0.16200
O1319       O  0.27398172  0.81520448  0.97407901    -0.26200
C1320       C  0.25505395  0.81683466  0.96035504     0.06000
C1321       C  0.22527596  0.81899334  0.96551949    -0.31100
O1322       O  0.19488742  0.81879214  0.02839095    -0.22900
C1323       C  0.21355189  0.81633126  0.04216985    -0.02900
C1324       C  0.24342617  0.81416417  0.03713366    -0.17300
H1325       H  0.28875180  0.81235584  0.00994463     0.20700
H1326       H  0.18024608  0.82166865  0.99265150     0.19000
H1327       H  0.20560726  0.82042084  0.95708816     0.19000
H1328       H  0.26293416  0.81206574  0.04564463     0.14800
C1329       C  0.17956845  0.89194355  0.87946385     0.30300
C1330       C  0.14910632  0.89832702  0.87663296    -0.36100
C1331       C  0.14228327  0.92783110  0.87220889     0.16300
C1332       C  0.16399486  0.94939177  0.87050049     0.22100
C1333       C  0.19432774  0.94301788  0.87330141    -0.34200
C1334       C  0.20107942  0.91371638  0.87786922     0.16200
O1335       O  0.19103646  0.86623938  0.88442930    -0.26200
C1336       C  0.22019889  0.87182335  0.88604121     0.06000
C1337       C  0.22766402  0.90094684  0.88211845    -0.31100
O1338       O  0.15281947  0.97543346  0.86621132    -0.22900
C1339       C  0.12348227  0.97071384  0.86528717    -0.02900
C1340       C  0.11556580  0.94148719  0.86889084    -0.17300
H1341       H  0.13192284  0.88160504  0.87803076     0.20700
H1342       H  0.21146574  0.95984918  0.87220055     0.19000
H1343       H  0.24945279  0.91137614  0.88280708     0.19000
H1344       H  0.09345036  0.93170607  0.86880623     0.14800
C1345       C  0.44299077  0.88082454  0.86161028     0.30300
C1346       C  0.41998806  0.86047966  0.85813474    -0.36100
C1347       C  0.39841215  0.85738083  0.87160735     0.16300
C1348       C  0.39945182  0.87313907  0.88742263     0.22100
C1349       C  0.42245019  0.89348878  0.89088397    -0.34200
C1350       C  0.44393553  0.89670814  0.87737956     0.16200
O1351       O  0.46606079  0.88641042  0.85118824    -0.26200
C1352       C  0.48186919  0.90621580  0.86036478     0.06000
C1353       C  0.46915233  0.91358645  0.87671937    -0.31100
O1354       O  0.37685425  0.86692032  0.89810064    -0.22900
C1355       C  0.36112599  0.84697655  0.88899408    -0.02900
C1356       C  0.37347344  0.84012223  0.87243512    -0.17300
H1357       H  0.41908870  0.84783815  0.84585630     0.20700
H1358       H  0.42355497  0.90586872  0.90325373     0.19000
H1359       H  0.47788451  0.92824292  0.88691859     0.19000
H1360       H  0.36508293  0.82492964  0.86242290     0.14800
C1361       C  0.33728084  0.63891707  0.88151840     0.30300
C1362       C  0.33580669  0.65819783  0.89619480    -0.36100
C1363       C  0.31741264  0.68307829  0.89405520     0.16300
C1364       C  0.30150456  0.68859794  0.87855645     0.22100
C1365       C  0.30281360  0.66917063  0.86392781    -0.34200
C1366       C  0.32135314  0.64436822  0.86602149     0.16200
O1367       O  0.35399603  0.61499094  0.88035752    -0.26200
C1368       C  0.34881587  0.60505123  0.86388892     0.06000
C1369       C  0.32868213  0.62239411  0.85433274    -0.31100
O1370       O  0.28764608  0.71435758  0.87892620    -0.22900
C1371       C  0.29469017  0.72541310  0.89487952    -0.02900
C1372       C  0.31300105  0.70684022  0.90491610    -0.17300
H1373       H  0.34876291  0.65450219  0.90823626     0.20700
H1374       H  0.29098726  0.67359692  0.85156901     0.19000
H1375       H  0.32092228  0.61942751  0.84072633     0.19000
H1376       H  0.32311758  0.71110718  0.91783071     0.14800
C1377       C  0.71908083  0.65093580  0.02336009     0.30300
C1378       C  0.69422452  0.65077627  0.01186949    -0.36100
C1379       C  0.70053608  0.65172774  0.99351069     0.16300
C1380       C  0.72933393  0.65298904  0.98688558     0.22100
C1381       C  0.75423279  0.65308557  0.99838428    -0.34200
C1382       C  0.74791443  0.65187209  0.01676412     0.16200
O1383       O  0.71829199  0.64986014  0.04098081    -0.26200
C1384       C  0.74697908  0.64991481  0.04575583     0.06000
C1385       C  0.76645963  0.65108882  0.03126364    -0.31100
O1386       O  0.73000243  0.65345926  0.96923986    -0.22900
C1387       C  0.70127047  0.65235932  0.96453658    -0.02900
C1388       C  0.68192948  0.65123513  0.97906486    -0.17300
H1389       H  0.67154393  0.64973875  0.01689553     0.20700
H1390       H  0.77692331  0.65378395  0.99335093     0.19000
H1391       H  0.79068401  0.65135293  0.03142089     0.19000
H1392       H  0.65773532  0.65000938  0.97896627     0.14800
C1393       C  0.81302374  0.53377185  0.87459532     0.30300
C1394       C  0.80852321  0.56320787  0.87988528    -0.36100
C1395       C  0.77906561  0.57085442  0.88434688     0.16300
C1396       C  0.75573576  0.55081153  0.88385635     0.22100
C1397       C  0.76017164  0.52147222  0.87841468    -0.34200
C1398       C  0.78954660  0.51392950  0.87375772     0.16200
O1399       O  0.83874990  0.52176672  0.86995754    -0.26200
C1400       C  0.83156390  0.49397392  0.86600481     0.06000
C1401       C  0.80126514  0.48785736  0.86801397    -0.31100
O1402       O  0.73014771  0.56254828  0.88890729    -0.22900
C1403       C  0.73711307  0.59052901  0.89245556    -0.02900
C1404       C  0.76718857  0.59704724  0.88984194    -0.17300
H1405       H  0.82669644  0.57901379  0.88048160     0.20700
H1406       H  0.74200928  0.50564767  0.87786684     0.19000
H1407       H  0.78968352  0.46715670  0.86572368     0.19000
H1408       H  0.77862460  0.61787890  0.89194601     0.14800
C1409       C  0.55548150  0.58973765  0.89208543     0.30300
C1410       C  0.53150987  0.57049730  0.89566569    -0.36100
C1411       C  0.51063253  0.56681106  0.88177600     0.16300
C1412       C  0.51307202  0.58129810  0.86557406     0.22100
C1413       C  0.53695888  0.60051142  0.86200779    -0.34200
C1414       C  0.55790863  0.60398678  0.87580711     0.16200
O1415       O  0.57784992  0.59611795  0.90299150    -0.26200
C1416       C  0.59478606  0.61457990  0.89350546     0.06000
C1417       C  0.58346518  0.62027737  0.87651897    -0.31100
O1418       O  0.49082719  0.57513305  0.85461416    -0.22900
C1419       C  0.47397871  0.55626652  0.86381680    -0.02900
C1420       C  0.48515666  0.55022474  0.88081961    -0.17300
H1421       H  0.52936095  0.55912173  0.90834282     0.20700
H1422       H  0.53909291  0.61190569  0.84933401     0.19000
H1423       H  0.59287219  0.63420845  0.86616715     0.19000
H1424       H  0.47552309  0.53627676  0.89108465     0.14800
C1425       C  0.63451397  0.81755803  0.86661928     0.30300
C1426       C  0.64943530  0.79118655  0.86238251    -0.36100
C1427       C  0.65468890  0.77183005  0.87670921     0.16300
C1428       C  0.64593698  0.77802493  0.89402379     0.22100
C1429       C  0.63151320  0.80461808  0.89831473    -0.34200
C1430       C  0.62610576  0.82387664  0.88397775     0.16200
O1431       O  0.62534972  0.83778471  0.85513334    -0.26200
C1432       C  0.61089376  0.85722739  0.86529112     0.06000
C1433       C  0.61077601  0.84982787  0.88334079    -0.31100
O1434       O  0.65070648  0.75572836  0.90502405    -0.22900
C1435       C  0.66289039  0.73511624  0.89465374    -0.02900
C1436       C  0.66607354  0.74391453  0.87693678    -0.17300
H1437       H  0.65546184  0.78563356  0.84877314     0.20700
H1438       H  0.62391513  0.80939686  0.91174879     0.19000
H1439       H  0.60002858  0.86136592  0.89427285     0.19000
H1440       H  0.67395034  0.73098062  0.86570445     0.14800
loop_ 
_geom_bond_atom_site_label_1 
_geom_bond_atom_site_label_2 
_geom_bond_distance 
_geom_bond_site_symmetry_2 
_ccdc_geom_bond_type 
In1           O3   2.244       .  S
In1           O4   2.244       .  S
In1          O12   2.244       .  S
In1           O6   2.251       .  S
In1           O8   2.258       .  S
In1           O9   2.247       .  S
In1          O10   2.238       .  S
In1          O13   2.236       .  S
C2            O8   1.262       .  A
C2           O10   1.259       .  A
C2         C1416   1.468       .  S
O3           C11   1.259       .  A
O4           C11   1.260       .  A
C5           O12   1.259       .  A
C5            O6   1.263       .  A
C5         C1387   1.468       .  S
C7            O9   1.261       .  A
C7           O13   1.259       .  A
C7         C1403   1.462       .  S
C11        C1435   1.464       .  S
In14         O16   2.243       .  S
In14         O17   2.255       .  S
In14         O25   2.236       .  S
In14         O19   2.256       .  S
In14         O21   2.243       .  S
In14         O22   2.265       .  S
In14         O23   2.247       .  S
In14         O26   2.232       .  S
C15          O21   1.261       .  A
C15          O23   1.262       .  A
C15        C1355   1.466       .  S
O16          C24   1.259       .  A
O17          C24   1.261       .  A
C18          O25   1.259       .  A
C18          O19   1.261       .  A
C18        C1320   1.466       .  S
C20          O22   1.262       .  A
C20          O26   1.259       .  A
C20        C1336   1.469       .  S
C24        C1371   1.468       .  S
In27         O29   2.253       .  S
In27         O30   2.224       .  S
In27         O38   2.247       .  S
In27         O32   2.231       .  S
In27         O34   2.247       .  S
In27         O35   2.249       .  S
In27         O36   2.233       .  S
In27         O39   2.235       .  S
C28          O34   1.263       .  A
C28          O36   1.261       .  A
C28        C1432   1.465       .  S
O29          C37   1.263       .  A
O30          C37   1.259       .  A
C31          O38   1.262       .  A
C31          O32   1.258       .  A
C31        C1288   1.462       .  S
C33          O35   1.262       .  A
C33          O39   1.258       .  A
C33        C1352   1.463       .  S
C37        C1307   1.461       .  S
In40         O42   2.235       .  S
In40         O43   2.257       .  S
In40         O51   2.250       .  S
In40         O45   2.257       .  S
In40         O47   2.254       .  S
In40         O48   2.256       .  S
In40         O49   2.231       .  S
In40         O52   2.235       .  S
C41          O47   1.265       .  A
C41          O49   1.259       .  A
C41        C1368   1.466       .  S
O42          C50   1.258       .  A
O43          C50   1.263       .  A
C44          O51   1.261       .  A
C44          O45   1.262       .  A
C44        C1256   1.473       .  S
C46          O48   1.263       .  A
C46          O52   1.260       .  A
C46        C1419   1.467       .  S
C50        C1272   1.466       .  S
In53         O55   2.256       .  S
In53         O56   2.259       .  S
In53         O64   2.232       .  S
In53         O58   2.268       .  S
In53         O60   2.268       .  S
In53         O61   2.248       .  S
In53         O62   2.232       .  S
In53         O65   2.264   1_545  S
C54          O60   1.264       .  A
C54          O62   1.259       .  A
C54        C1243   1.469       .  S
O55          C63   1.260       .  A
O56          C63   1.261       .  A
C57          O64   1.258       .  A
C57          O58   1.264       .  A
C57        C1208   1.469       .  S
C59          O61   1.260   1_565  A
C59          O65   1.262       .  A
C59        C1339   1.472       .  S
C63        C1227   1.474   1_455  S
In66         O68   2.237       .  S
In66         O69   2.261       .  S
In66         O77   2.236       .  S
In66         O71   2.257       .  S
In66         O73   2.258       .  S
In66         O74   2.249       .  S
In66         O75   2.230       .  S
In66         O78   2.236       .  S
C67          O73   1.263       .  A
C67          O75   1.259       .  A
C67        C1192   1.465       .  S
O68          C76   1.259       .  A
O69          C76   1.261       .  A
C70          O77   1.259       .  A
C70          O71   1.262       .  A
C70        C1163   1.467       .  S
C72          O74   1.263       .  A
C72          O78   1.260       .  A
C72        C1400   1.464       .  S
C76        C1176   1.468       .  S
In79         O81   2.234       .  S
In79         O82   2.264       .  S
In79         O90   2.252       .  S
In79         O84   2.263       .  S
In79         O86   2.260       .  S
In79         O87   2.264       .  S
In79         O88   2.225       .  S
In79         O91   2.247       .  S
C80          O86   1.265       .  A
C80          O88   1.260       .  A
C80        C1179   1.465       .  S
O81          C89   1.258       .  A
O82          C89   1.262       .  A
C83          O90   1.260       .  A
C83          O84   1.261       .  A
C83        C1147   1.473       .  S
C85          O87   1.259       .  A
C85          O91   1.259       .  A
C85        C1240   1.471       .  S
C89        C1275   1.467       .  S
In92         O94   2.227       .  S
In92         O95   2.259       .  S
In92        O103   2.259       .  S
In92         O97   2.244       .  S
In92         O99   2.264       .  S
In92        O100   2.265       .  S
In92        O101   2.243       .  S
In92        O104   2.229       .  S
C93          O99   1.263       .  A
C93         O101   1.261       .  A
C93        C1224   1.475       .  S
O94         C102   1.259       .  A
O95         C102   1.261       .  A
C96         O103   1.260       .  A
C96          O97   1.261       .  A
C96        C1128   1.469       .  S
C98         O100   1.261       .  A
C98         O104   1.259       .  A
C98        C1195   1.467       .  S
C102       C1304   1.464       .  S
In105       O107   2.242       .  S
In105       O108   2.255       .  S
In105       O116   2.236       .  S
In105       O110   2.254       .  S
In105       O112   2.253       .  S
In105       O113   2.267       .  S
In105       O114   2.230       .  S
In105       O117   2.245       .  S
C106        O112   1.262       .  A
C106        O114   1.260       .  A
C106       C1096   1.465       .  S
O107        C115   1.259       .  A
O108        C115   1.263       .  A
C109        O116   1.260       .  A
C109        O110   1.262       .  A
C109       C1064   1.467       .  S
C111        O113   1.261       .  A
C111        O117   1.257       .  A
C111       C1115   1.470       .  S
C115       C1080   1.468       .  S
In118       O120   2.223       .  S
In118       O121   2.248       .  S
In118       O129   2.245       .  S
In118       O123   2.237       .  S
In118       O125   2.245       .  S
In118       O126   2.248       .  S
In118       O127   2.231       .  S
In118       O130   2.218       .  S
C119        O125   1.263       .  A
C119        O127   1.261       .  A
C119       C1112   1.465       .  S
O120        C128   1.259       .  A
O121        C128   1.261       .  A
C122        O129   1.262       .  A
C122        O123   1.258       .  A
C122       C1016   1.463       .  S
C124        O126   1.263       .  A
C124        O130   1.259       .  A
C124       C1032   1.458       .  S
C128       C1051   1.460       .  S
In131       O133   2.238       .  S
In131       O134   2.253       .  S
In131       O142   2.245       .  S
In131       O136   2.251       .  S
In131       O138   2.254       .  S
In131       O139   2.253       .  S
In131       O140   2.222       .  S
In131       O143   2.237       .  S
C132        O138   1.263       .  A
C132        O140   1.258       .  A
C132       C1048   1.460       .  S
O133        C141   1.258       .  A
O134        C141   1.261       .  A
C135        O142   1.260       .  A
C135        O136   1.261       .  A
C135        C968   1.469       .  S
C137        O139   1.260       .  A
C137        O143   1.259       .  A
C137       C1000   1.465       .  S
C141        C987   1.464       .  S
In144       O146   2.243       .  S
In144       O147   2.252       .  S
In144       O155   2.250       .  S
In144       O149   2.241       .  S
In144       O151   2.253       .  S
In144       O152   2.241       .  S
In144       O153   2.231       .  S
In144       O156   2.252       .  S
C145        O151   1.263       .  A
C145        O153   1.260       .  A
C145       C1003   1.464       .  S
O146        C154   1.257       .  A
O147        C154   1.260       .  A
C148        O155   1.261       .  A
C148        O149   1.259       .  A
C148        C936   1.466       .  S
C150        O152   1.260       .  A
C150        O156   1.262       .  A
C150        C955   1.466       .  S
C154       C1099   1.465       .  S
In157       O159   2.240       .  S
In157       O160   2.250       .  S
In157       O168   2.234       .  S
In157       O162   2.257       .  S
In157       O164   2.254       .  S
In157       O165   2.251       .  S
In157       O166   2.224       .  S
In157       O169   2.229       .  S
C158        O164   1.265       .  A
C158        O166   1.259       .  A
C158        C907   1.463       .  S
O159        C167   1.260       .  A
O160        C167   1.261       .  A
C161        O168   1.260       .  A
C161        O162   1.263       .  A
C161        C891   1.468       .  S
C163        O165   1.263       .  A
C163        O169   1.260       .  A
C163        C952   1.464       .  S
C167        C923   1.467       .  S
In170       O172   2.228       .  S
In170       O173   2.250       .  S
In170       O181   2.231       .  S
In170       O175   2.255       .  S
In170       O177   2.262       .  S
In170       O178   2.250       .  S
In170       O179   2.227       .  S
In170       O182   2.236       .  S
C171        O177   1.265       .  A
C171        O179   1.259       .  A
C171        C920   1.467       .  S
O172        C180   1.261       .  A
O173        C180   1.263       .  A
C174        O181   1.258       .  A
C174        O175   1.263       .  A
C174        C859   1.464       .  S
C176        O178   1.261       .  A
C176        O182   1.260       .  A
C176        C875   1.465   1_455  S
C180        C984   1.464       .  S
In183       O185   2.236       .  S
In183       O186   2.259   1_545  S
In183       O194   2.250   1_545  S
In183       O188   2.258       .  S
In183       O190   2.255       .  S
In183       O191   2.253       .  S
In183       O192   2.241       .  S
In183       O195   2.237       .  S
C184        O190   1.263       .  A
C184        O192   1.261       .  A
C184        C840   1.469       .  S
O185        C193   1.259   1_545  A
O186        C193   1.262       .  A
C187        O194   1.259   1_545  A
C187        O188   1.261       .  A
C187        C827   1.469   1_545  S
C189        O191   1.260       .  A
C189        O195   1.259       .  A
C189        C904   1.464       .  S
C193       C1083   1.467       .  S
In196       O198   2.234       .  S
In196       O199   2.255       .  S
In196       O207   2.230       .  S
In196       O201   2.252       .  S
In196       O203   2.246       .  S
In196       O204   2.249       .  S
In196       O205   2.227       .  S
In196       O208   2.222       .  S
C197        O203   1.264       .  A
C197        O205   1.260       .  A
C197        C872   1.462       .  S
O198        C206   1.258       .  A
O199        C206   1.262       .  A
C200        O207   1.259       .  A
C200        O201   1.262       .  A
C200        C808   1.464       .  S
C202        O204   1.263       .  A
C202        O208   1.259       .  A
C202       C1035   1.460       .  S
C206        C843   1.466       .  S
In209       O211   2.239       .  S
In209       O212   2.266       .  S
In209       O220   2.246       .  S
In209       O214   2.252       .  S
In209       O216   2.249       .  S
In209       O217   2.260       .  S
In209       O218   2.232       .  S
In209       O221   2.241       .  S
C210        O216   1.262       .  A
C210        O218   1.260       .  A
C210        C779   1.464       .  S
O211        C219   1.257       .  A
O212        C219   1.260       .  A
C213        O220   1.260       .  A
C213        O214   1.261       .  A
C213       C1384   1.469       .  S
C215        O217   1.262       .  A
C215        O221   1.259       .  A
C215        C760   1.469       .  S
C219        C795   1.467       .  S
In222       O224   2.221       .  S
In222       O225   2.239       .  S
In222       O233   2.248       .  S
In222       O227   2.233       .  S
In222       O229   2.240       .  S
In222       O230   2.260       .  S
In222       O231   2.223       .  S
In222       O234   2.222       .  S
C223        O229   1.263       .  A
C223        O231   1.260       .  A
C223        C744   1.459       .  S
O224        C232   1.260       .  A
O225        C232   1.263       .  A
C226        O233   1.262       .  A
C226        O227   1.259       .  A
C226        C856   1.463       .  S
C228        O230   1.261       .  A
C228        O234   1.258       .  A
C228        C776   1.462   1_455  S
C232        C728   1.457       .  S
In235       O237   2.229       .  S
In235       O238   2.250       .  S
In235       O246   2.246       .  S
In235       O240   2.242       .  S
In235       O242   2.253       .  S
In235       O243   2.265       .  S
In235       O244   2.236       .  S
In235       O247   2.239       .  S
C236        O242   1.261       .  A
C236        O244   1.260       .  A
C236        C792   1.466       .  S
O237        C245   1.259       .  A
O238        C245   1.263       .  A
C239        O246   1.262       .  A
C239        O240   1.260       .  A
C239        C824   1.466       .  S
C241        O243   1.260       .  A
C241        O247   1.258       .  A
C241        C715   1.467       .  S
C245        C696   1.462       .  S
In248       O250   2.247       .  S
In248       O251   2.241       .  S
In248       O259   2.242       .  S
In248       O253   2.240       .  S
In248       O255   2.262       .  S
In248       O256   2.250       .  S
In248       O257   2.235       .  S
In248       O260   2.216       .  S
C249        O255   1.261       .  A
C249        O257   1.259       .  A
C249        C712   1.468       .  S
O250        C258   1.258       .  A
O251        C258   1.258       .  A
C252        O259   1.261       .  A
C252        O253   1.262       .  A
C252       C1323   1.464       .  S
C254        O256   1.263       .  A
C254        O260   1.260       .  A
C254        C680   1.459       .  S
C258        C747   1.461       .  S
In261       O263   2.220       .  S
In261       O264   2.247       .  S
In261       O272   2.236       .  S
In261       O266   2.257       .  S
In261       O268   2.253       .  S
In261       O269   2.246       .  S
In261       O270   2.229       .  S
In261       O273   2.240       .  S
C262        O268   1.265       .  A
C262        O270   1.260       .  A
C262        C667   1.465       .  S
O263        C271   1.258       .  A
O264        C271   1.262       .  A
C265        O272   1.259       .  A
C265        O266   1.263       .  A
C265       C1144   1.468       .  S
C267        O269   1.260       .  A
C267        O273   1.258       .  A
C267        C648   1.463       .  S
C271        C731   1.456       .  S
In274       O276   2.242       .  S
In274       O277   2.262       .  S
In274       O285   2.238   1_545  S
In274       O279   2.266       .  S
In274       O281   2.257       .  S
In274       O282   2.248   1_545  S
In274       O283   2.233       .  S
In274       O286   2.234       .  S
C275        O281   1.264       .  A
C275        O283   1.260       .  A
C275        C651   1.467       .  S
O276        C284   1.259       .  A
O277        C284   1.259       .  A
C278        O285   1.258   1_545  A
C278        O279   1.263       .  A
C278        C939   1.470       .  S
C280        O282   1.262       .  A
C280        O286   1.260   1_565  A
C280        C683   1.462       .  S
C284        C635   1.468       .  S
In287       O289   2.247       .  S
In287       O290   2.253       .  S
In287       O298   2.227       .  S
In287       O292   2.257       .  S
In287       O294   2.246       .  S
In287       O295   2.253       .  S
In287       O296   2.230       .  S
In287       O299   2.243       .  S
C288        O294   1.262       .  A
C288        O296   1.260       .  A
C288        C619   1.463       .  S
O289        C297   1.259       .  A
O290        C297   1.261       .  A
C291        O298   1.258       .  A
C291        O292   1.262       .  A
C291       C1019   1.462       .  S
C293        O295   1.264       .  A
C293        O299   1.260       .  A
C293        C763   1.469       .  S
C297        C664   1.468       .  S
In300       O302   2.237       .  S
In300       O303   2.250       .  S
In300       O311   2.248       .  S
In300       O305   2.244       .  S
In300       O307   2.257       .  S
In300       O308   2.257       .  S
In300       O309   2.227       .  S
In300       O312   2.238       .  S
C301        O307   1.263       .  A
C301        O309   1.260       .  A
C301        C632   1.465       .  S
O302        C310   1.257       .  A
O303        C310   1.261       .  A
C304        O311   1.259       .  A
C304        O305   1.261       .  A
C304       C1131   1.466       .  S
C306        O308   1.261       .  A
C306        O312   1.258       .  A
C306        C616   1.464       .  S
C310        C699   1.461       .  S
In313       O315   2.232       .  S
In313       O316   2.240       .  S
In313       O324   2.249       .  S
In313       O318   2.250       .  S
In313       O320   2.270       .  S
In313       O321   2.242       .  S
In313       O322   2.232       .  S
In313       O325   2.241       .  S
C314        O320   1.263       .  A
C314        O322   1.258       .  A
C314        C584   1.470       .  S
O315        C323   1.259       .  A
O316        C323   1.260       .  A
C317        O324   1.259       .  A
C317        O318   1.263       .  A
C317       C1067   1.469       .  S
C319        O321   1.259       .  A
C319        O325   1.260       .  A
C319        C603   1.463       .  S
C323        C571   1.459       .  S
In326       O328   2.248       .  S
In326       O329   2.267       .  S
In326       O337   2.247       .  S
In326       O331   2.242       .  S
In326       O333   2.269       .  S
In326       O334   2.254       .  S
In326       O335   2.240       .  S
In326       O338   2.253       .  S
C327        O333   1.259       .  A
C327        O335   1.256       .  A
C327        C600   1.466       .  S
O328        C336   1.259       .  A
O329        C336   1.260       .  A
C330        O337   1.264       .  A
C330        O331   1.262       .  A
C330       C1160   1.470       .  S
C332        O334   1.259       .  A
C332        O338   1.258       .  A
C332        C539   1.466       .  S
C336        C555   1.472       .  S
In339       O341   2.242       .  S
In339       O342   2.253       .  S
In339       O350   2.254       .  S
In339       O344   2.233       .  S
In339       O346   2.258       .  S
In339       O347   2.226       .  S
In339       O348   2.232       .  S
In339       O351   2.246       .  S
C340        O346   1.265       .  A
C340        O348   1.260       .  A
C340        C523   1.470       .  S
O341        C349   1.259       .  A
O342        C349   1.261       .  A
C343        O350   1.264       .  A
C343        O344   1.259       .  A
C343       C1211   1.466       .  S
C345        O347   1.261       .  A
C345        O351   1.263       .  A
C345        C507   1.461       .  S
C349        C587   1.467   1_455  S
In352       O354   2.254       .  S
In352       O355   2.242       .  S
In352       O363   2.244       .  S
In352       O357   2.266       .  S
In352       O359   2.234       .  S
In352       O360   2.248       .  S
In352       O361   2.265       .  S
In352       O364   2.261       .  S
C353        O359   1.259       .  A
C353        O361   1.264       .  A
C353        C552   1.469       .  S
O354        C362   1.260       .  A
O355        C362   1.258       .  A
C356        O363   1.259       .  A
C356        O357   1.263       .  A
C356        C971   1.473       .  S
C358        O360   1.260       .  A
C358        O364   1.261       .  A
C358        C520   1.471       .  S
C362        C488   1.464       .  S
In365       O367   2.232       .  S
In365       O368   2.260       .  S
In365       O376   2.242       .  S
In365       O370   2.251       .  S
In365       O372   2.250       .  S
In365       O373   2.256       .  S
In365       O374   2.233       .  S
In365       O377   2.221       .  S
C366        O372   1.264       .  A
C366        O374   1.261       .  A
C366        C456   1.465       .  S
O367        C375   1.258       .  A
O368        C375   1.261       .  A
C369        O376   1.260       .  A
C369        O370   1.261       .  A
C369        C888   1.467       .  S
C371        O373   1.263       .  A
C371        O377   1.257       .  A
C371        C504   1.460       .  S
C375        C475   1.466       .  S
In378       O380   2.234       .  S
In378       O381   2.242       .  S
In378       O389   2.248       .  S
In378       O383   2.255       .  S
In378       O385   2.266       .  S
In378       O386   2.252       .  S
In378       O387   2.224       .  S
In378       O390   2.243       .  S
C379        O385   1.263       .  A
C379        O387   1.257       .  A
C379        C472   1.464       .  S
O380        C388   1.260       .  A
O381        C388   1.264       .  A
C382        O389   1.260       .  A
C382        O383   1.263       .  A
C382       C1259   1.471       .  S
C384        O386   1.259       .  A
C384        O390   1.259       .  A
C384        C443   1.465       .  S
C388        C491   1.463       .  S
In391       O393   2.233       .  S
In391       O394   2.244   1_545  S
In391       O402   2.229   1_545  S
In391       O396   2.247       .  S
In391       O398   2.235       .  S
In391       O399   2.256       .  S
In391       O400   2.258       .  S
In391       O403   2.224       .  S
C392        O398   1.260       .  A
C392        O400   1.263       .  A
C392        C427   1.468       .  S
O393        C401   1.260   1_545  A
O394        C401   1.262       .  A
C395        O402   1.259   1_545  A
C395        O396   1.264       .  A
C395       C1291   1.462       .  S
C397        O399   1.262       .  A
C397        O403   1.259       .  A
C397        C459   1.464       .  S
C401        C568   1.461       .  S
In404       O406   2.240       .  S
In404       O407   2.257       .  S
In404       O415   2.247       .  S
In404       O409   2.242       .  S
In404       O411   2.267       .  S
In404       O412   2.244       .  S
In404       O413   2.226       .  S
In404       O416   2.238       .  S
C405        O411   1.261       .  A
C405        O413   1.255       .  A
C405        C440   1.463       .  S
O406        C414   1.258       .  A
O407        C414   1.260       .  A
C408        O415   1.263       .  A
C408        O409   1.262       .  A
C408        C811   1.468       .  S
C410        O412   1.260       .  A
C410        O416   1.260       .  A
C410        C536   1.463       .  S
C414        C424   1.466       .  S
C417        C422   1.381       .  A
C417        C418   1.400       .  A
C417        O423   1.316       .  A
C418        C419   1.400       .  A
C418        H429   1.082       .  S
C419        C428   1.359       .  A
C419        C420   1.381       .  A
C420        C421   1.406       .  A
C420        O426   1.321       .  A
C421        C422   1.405       .  A
C421        H430   1.082       .  S
C422        C425   1.365       .  A
O423        C424   1.328       .  A
C424        C425   1.392       .  A
C425        H431   1.082       .  S
O426        C427   1.332       .  A
C427        C428   1.389       .  A
C428        H432   1.083       .  S
C433        C438   1.381       .  A
C433        C434   1.400       .  A
C433        O439   1.314       .  A
C434        C435   1.399       .  A
C434        H445   1.082       .  S
C435        C444   1.359       .  A
C435        C436   1.381       .  A
C436        C437   1.405       .  A
C436        O442   1.319       .  A
C437        C438   1.404       .  A
C437        H446   1.082       .  S
C438        C441   1.365       .  A
O439        C440   1.328       .  A
C440        C441   1.391       .  A
C441        H447   1.082       .  S
O442        C443   1.331       .  A
C443        C444   1.389       .  A
C444        H448   1.082       .  S
C449        C454   1.381       .  A
C449        C450   1.400       .  A
C449        O455   1.316       .  A
C450        C451   1.399       .  A
C450        H461   1.082       .  S
C451        C460   1.357       .  A
C451        C452   1.381       .  A
C452        C453   1.404       .  A
C452        O458   1.320       .  A
C453        C454   1.404       .  A
C453        H462   1.082       .  S
C454        C457   1.363       .  A
O455        C456   1.329       .  A
C456        C457   1.391       .  A
C457        H463   1.082       .  S
O458        C459   1.331       .  A
C459        C460   1.389       .  A
C460        H464   1.082       .  S
C465        C470   1.381       .  A
C465        C466   1.400       .  A
C465        O471   1.315       .  A
C466        C467   1.399       .  A
C466        H477   1.082       .  S
C467        C476   1.357       .  A
C467        C468   1.381       .  A
C468        C469   1.405       .  A
C468        O474   1.320       .  A
C469        C470   1.404       .  A
C469        H478   1.082       .  S
C470        C473   1.365       .  A
O471        C472   1.329       .  A
C472        C473   1.391       .  A
C473        H479   1.082       .  S
O474        C475   1.331       .  A
C475        C476   1.389       .  A
C476        H480   1.083       .  S
C481        C486   1.381       .  A
C481        C482   1.402       .  A
C481        O487   1.318       .  A
C482        C483   1.401       .  A
C482        H493   1.082       .  S
C483        C492   1.360       .  A
C483        C484   1.381       .  A
C484        C485   1.402       .  A
C484        O490   1.317       .  A
C485        C486   1.402       .  A
C485        H494   1.082       .  S
C486        C489   1.360       .  A
O487        C488   1.329       .  A
C488        C489   1.390       .  A
C489        H495   1.082       .  S
O490        C491   1.330       .  A
C491        C492   1.389       .  A
C492        H496   1.082       .  S
C497        C502   1.381       .  A
C497        C498   1.399       .  A
C497        O503   1.314       .  A
C498        C499   1.398       .  A
C498        H509   1.082       .  S
C499        C508   1.357   1_545  A
C499        C500   1.381       .  A
C500        C501   1.404       .  A
C500        O506   1.319       .  A
C501        C502   1.403       .  A
C501        H510   1.082       .  S
C502        C505   1.364       .  A
O503        C504   1.328       .  A
C504        C505   1.390       .  A
C505        H511   1.082       .  S
O506        C507   1.330   1_545  A
C507        C508   1.388       .  A
C508        H512   1.083       .  S
C513        C518   1.381       .  A
C513        C514   1.404       .  A
C513        O519   1.321       .  A
C514        C515   1.403       .  A
C514        H525   1.082       .  S
C515        C524   1.360       .  A
C515        C516   1.381       .  A
C516        C517   1.404       .  A
C516        O522   1.321       .  A
C517        C518   1.404       .  A
C517        H526   1.082       .  S
C518        C521   1.362       .  A
O519        C520   1.331       .  A
C520        C521   1.391       .  A
C521        H527   1.082       .  S
O522        C523   1.331       .  A
C523        C524   1.391       .  A
C524        H528   1.082       .  S
C529        C534   1.381       .  A
C529        C530   1.404       .  A
C529        O535   1.319       .  A
C530        C531   1.404       .  A
C530        H541   1.082       .  S
C531        C540   1.363       .  A
C531        C532   1.381       .  A
C532        C533   1.402       .  A
C532        O538   1.318       .  A
C533        C534   1.400       .  A
C533        H542   1.082       .  S
C534        C537   1.359       .  A
O535        C536   1.330       .  A
C536        C537   1.388       .  A
C537        H543   1.082       .  S
O538        C539   1.329       .  A
C539        C540   1.391       .  A
C540        H544   1.082       .  S
C545        C550   1.380       .  A
C545        C546   1.402       .  A
C545        O551   1.317       .  A
C546        C547   1.401       .  A
C546        H557   1.082       .  S
C547        C556   1.360   1_455  A
C547        C548   1.380       .  A
C548        C549   1.407       .  A
C548        O554   1.322   1_455  A
C549        C550   1.406       .  A
C549        H558   1.082       .  S
C550        C553   1.367       .  A
O551        C552   1.330       .  A
C552        C553   1.392       .  A
C553        H559   1.082       .  S
O554        C555   1.333       .  A
C555        C556   1.390       .  A
C556        H560   1.082       .  S
C561        C566   1.381       .  A
C561        C562   1.403       .  A
C561        O567   1.318       .  A
C562        C563   1.402       .  A
C562        H573   1.082       .  S
C563        C572   1.361       .  A
C563        C564   1.381       .  A
C564        C565   1.399       .  A
C564        O570   1.315       .  A
C565        C566   1.399       .  A
C565        H574   1.082       .  S
C566        C569   1.358       .  A
O567        C568   1.330       .  A
C568        C569   1.388       .  A
C569        H575   1.082       .  S
O570        C571   1.327       .  A
C571        C572   1.390       .  A
C572        H576   1.082       .  S
C577        C582   1.381       .  A
C577        C578   1.405       .  A
C577        O583   1.322       .  A
C578        C579   1.405       .  A
C578        H589   1.082       .  S
C579        C588   1.364       .  A
C579        C580   1.381       .  A
C580        C581   1.401       .  A
C580        O586   1.318       .  A
C581        C582   1.401       .  A
C581        H590   1.082       .  S
C582        C585   1.358       .  A
O583        C584   1.332       .  A
C584        C585   1.390       .  A
C585        H591   1.082       .  S
O586        C587   1.330       .  A
C587        C588   1.391       .  A
C588        H592   1.082       .  S
C593        C598   1.381       .  A
C593        C594   1.400       .  A
C593        O599   1.315       .  A
C594        C595   1.399       .  A
C594        H605   1.082       .  S
C595        C604   1.359       .  A
C595        C596   1.381       .  A
C596        C597   1.405       .  A
C596        O602   1.319       .  A
C597        C598   1.404       .  A
C597        H606   1.082       .  S
C598        C601   1.365       .  A
O599        C600   1.329       .  A
C600        C601   1.392       .  A
C601        H607   1.082       .  S
O602        C603   1.331       .  A
C603        C604   1.388       .  A
C604        H608   1.083       .  S
C609        C614   1.381       .  A
C609        C610   1.401       .  A
C609        O615   1.316       .  A
C610        C611   1.400       .  A
C610        H621   1.082       .  S
C611        C620   1.358       .  A
C611        C612   1.381       .  A
C612        C613   1.403       .  A
C612        O618   1.319       .  A
C613        C614   1.403       .  A
C613        H622   1.082       .  S
C614        C617   1.363       .  A
O615        C616   1.329       .  A
C616        C617   1.391       .  A
C617        H623   1.082       .  S
O618        C619   1.330       .  A
C619        C620   1.389       .  A
C620        H624   1.083       .  S
C625        C630   1.381       .  A
C625        C626   1.399       .  A
C625        O631   1.314       .  A
C626        C627   1.398       .  A
C626        H637   1.082       .  S
C627        C636   1.357       .  A
C627        C628   1.380       .  A
C628        C629   1.408       .  A
C628        O634   1.322       .  A
C629        C630   1.406       .  A
C629        H638   1.082       .  S
C630        C633   1.367       .  A
O631        C632   1.327       .  A
C632        C633   1.393       .  A
C633        H639   1.082       .  S
O634        C635   1.333       .  A
C635        C636   1.388       .  A
C636        H640   1.082       .  S
C641        C646   1.381       .  A
C641        C642   1.402       .  A
C641        O647   1.317       .  A
C642        C643   1.402       .  A
C642        H653   1.082       .  S
C643        C652   1.360       .  A
C643        C644   1.381       .  A
C644        C645   1.402       .  A
C644        O650   1.319       .  A
C645        C646   1.402       .  A
C645        H654   1.082       .  S
C646        C649   1.360       .  A
O647        C648   1.330       .  A
C648        C649   1.389       .  A
C649        H655   1.082       .  S
O650        C651   1.330       .  A
C651        C652   1.391       .  A
C652        H656   1.082       .  S
C657        C662   1.381       .  A
C657        C658   1.404       .  A
C657        O663   1.319       .  A
C658        C659   1.402       .  A
C658        H669   1.082       .  S
C659        C668   1.363       .  A
C659        C660   1.381       .  A
C660        C661   1.403       .  A
C660        O666   1.317       .  A
C661        C662   1.402       .  A
C661        H670   1.082       .  S
C662        C665   1.362       .  A
O663        C664   1.330       .  A
C664        C665   1.391       .  A
C665        H671   1.082       .  S
O666        C667   1.330       .  A
C667        C668   1.390       .  A
C668        H672   1.082       .  S
C673        C678   1.381       .  A
C673        C674   1.398       .  A
C673        O679   1.313       .  A
C674        C675   1.397       .  A
C674        H685   1.082       .  S
C675        C684   1.357       .  A
C675        C676   1.381       .  A
C676        C677   1.405       .  A
C676        O682   1.319       .  A
C677        C678   1.404       .  A
C677        H686   1.082       .  S
C678        C681   1.364       .  A
O679        C680   1.327       .  A
C680        C681   1.391       .  A
C681        H687   1.082       .  S
O682        C683   1.331       .  A
C683        C684   1.388       .  A
C684        H688   1.082       .  S
C689        C694   1.381       .  A
C689        C690   1.402       .  A
C689        O695   1.316   1_545  A
C690        C691   1.400       .  A
C690        H701   1.082   1_545  S
C691        C700   1.360       .  A
C691        C692   1.381       .  A
C692        C693   1.402       .  A
C692        O698   1.317       .  A
C693        C694   1.401       .  A
C693        H702   1.082       .  S
C694        C697   1.361       .  A
O695        C696   1.329       .  A
C696        C697   1.389   1_565  A
C697        H703   1.082       .  S
O698        C699   1.328       .  A
C699        C700   1.390       .  A
C700        H704   1.082       .  S
C705        C710   1.381       .  A
C705        C706   1.406       .  A
C705        O711   1.321       .  A
C706        C707   1.406       .  A
C706        H717   1.082       .  S
C707        C716   1.366   1_455  A
C707        C708   1.381       .  A
C708        C709   1.400       .  A
C708        O714   1.316       .  A
C709        C710   1.399       .  A
C709        H718   1.082       .  S
C710        C713   1.358       .  A
O711        C712   1.332       .  A
C712        C713   1.389       .  A
C713        H719   1.083       .  S
O714        C715   1.329   1_455  A
C715        C716   1.392       .  A
C716        H720   1.082       .  S
C721        C726   1.381       .  A
C721        C722   1.402       .  A
C721        O727   1.316       .  A
C722        C723   1.400       .  A
C722        H733   1.082       .  S
C723        C732   1.361       .  A
C723        C724   1.381       .  A
C724        C725   1.399       .  A
C724        O730   1.313       .  A
C725        C726   1.397       .  A
C725        H734   1.082       .  S
C726        C729   1.356       .  A
O727        C728   1.328       .  A
C728        C729   1.388       .  A
C729        H735   1.082       .  S
O730        C731   1.327       .  A
C731        C732   1.389       .  A
C732        H736   1.082       .  S
C737        C742   1.381       .  A
C737        C738   1.401       .  A
C737        O743   1.315       .  A
C738        C739   1.400       .  A
C738        H749   1.082       .  S
C739        C748   1.360       .  A
C739        C740   1.381       .  A
C740        C741   1.401       .  A
C740        O746   1.315       .  A
C741        C742   1.399       .  A
C741        H750   1.082       .  S
C742        C745   1.360       .  A
O743        C744   1.329       .  A
C744        C745   1.388       .  A
C745        H751   1.082       .  S
O746        C747   1.328       .  A
C747        C748   1.390       .  A
C748        H752   1.082       .  S
C753        C758   1.381       .  A
C753        C754   1.404       .  A
C753        O759   1.320       .  A
C754        C755   1.404       .  A
C754        H765   1.082       .  S
C755        C764   1.363       .  A
C755        C756   1.381       .  A
C756        C757   1.404       .  A
C756        O762   1.319       .  A
C757        C758   1.403       .  A
C757        H766   1.082       .  S
C758        C761   1.361       .  A
O759        C760   1.331       .  A
C760        C761   1.391       .  A
C761        H767   1.082       .  S
O762        C763   1.331       .  A
C763        C764   1.390       .  A
C764        H768   1.082       .  S
C769        C774   1.381       .  A
C769        C770   1.399       .  A
C769        O775   1.313       .  A
C770        C771   1.397       .  A
C770        H781   1.082       .  S
C771        C780   1.357       .  A
C771        C772   1.381       .  A
C772        C773   1.406       .  A
C772        O778   1.319       .  A
C773        C774   1.404       .  A
C773        H782   1.082       .  S
C774        C777   1.365       .  A
O775        C776   1.327       .  A
C776        C777   1.392       .  A
C777        H783   1.082       .  S
O778        C779   1.331       .  A
C779        C780   1.388       .  A
C780        H784   1.083       .  S
C785        C790   1.381       .  A
C785        C786   1.406       .  A
C785        O791   1.321       .  A
C786        C787   1.406       .  A
C786        H797   1.082       .  S
C787        C796   1.366       .  A
C787        C788   1.381       .  A
C788        C789   1.400       .  A
C788        O794   1.316       .  A
C789        C790   1.399       .  A
C789        H798   1.082       .  S
C790        C793   1.358       .  A
O791        C792   1.332       .  A
C792        C793   1.388       .  A
C793        H799   1.082       .  S
O794        C795   1.329       .  A
C795        C796   1.393       .  A
C796        H800   1.082       .  S
C801        C806   1.381       .  A
C801        C802   1.404       .  A
C801        O807   1.320       .  A
C802        C803   1.404       .  A
C802        H813   1.082       .  S
C803        C812   1.362       .  A
C803        C804   1.381       .  A
C804        C805   1.402       .  A
C804        O810   1.318       .  A
C805        C806   1.401       .  A
C805        H814   1.082       .  S
C806        C809   1.359       .  A
O807        C808   1.330       .  A
C808        C809   1.389       .  A
C809        H815   1.083       .  S
O810        C811   1.330       .  A
C811        C812   1.391       .  A
C812        H816   1.082       .  S
C817        C822   1.381       .  A
C817        C818   1.404   1_565  A
C817        O823   1.318       .  A
C818        C819   1.403   1_545  A
C818        H829   1.082       .  S
C819        C828   1.363   1_565  A
C819        C820   1.381       .  A
C820        C821   1.404       .  A
C820        O826   1.319       .  A
C821        C822   1.402       .  A
C821        H830   1.082       .  S
C822        C825   1.362       .  A
O823        C824   1.330       .  A
C824        C825   1.390       .  A
C825        H831   1.082       .  S
O826        C827   1.331       .  A
C827        C828   1.391   1_565  A
C828        H832   1.082       .  S
C833        C838   1.381       .  A
C833        C834   1.405       .  A
C833        O839   1.320       .  A
C834        C835   1.404       .  A
C834        H845   1.082       .  S
C835        C844   1.364       .  A
C835        C836   1.381       .  A
C836        C837   1.402       .  A
C836        O842   1.317       .  A
C837        C838   1.401       .  A
C837        H846   1.082       .  S
C838        C841   1.360       .  A
O839        C840   1.331       .  A
C840        C841   1.390       .  A
C841        H847   1.082       .  S
O842        C843   1.330       .  A
C843        C844   1.391       .  A
C844        H848   1.082       .  S
C849        C854   1.381       .  A
C849        C850   1.403       .  A
C849        O855   1.316       .  A
C850        C851   1.401       .  A
C850        H861   1.082       .  S
C851        C860   1.363       .  A
C851        C852   1.381       .  A
C852        C853   1.403       .  A
C852        O858   1.316       .  A
C853        C854   1.401       .  A
C853        H862   1.082       .  S
C854        C857   1.362       .  A
O855        C856   1.330       .  A
C856        C857   1.389       .  A
C857        H863   1.082       .  S
O858        C859   1.330       .  A
C859        C860   1.390       .  A
C860        H864   1.082       .  S
C865        C870   1.381       .  A
C865        C866   1.401       .  A
C865        O871   1.316       .  A
C866        C867   1.400       .  A
C866        H877   1.082       .  S
C867        C876   1.359       .  A
C867        C868   1.381       .  A
C868        C869   1.404       .  A
C868        O874   1.319       .  A
C869        C870   1.402       .  A
C869        H878   1.082       .  S
C870        C873   1.362       .  A
O871        C872   1.329       .  A
C872        C873   1.390       .  A
C873        H879   1.082       .  S
O874        C875   1.330       .  A
C875        C876   1.389       .  A
C876        H880   1.082       .  S
C881        C886   1.381       .  A
C881        C882   1.402       .  A
C881        O887   1.319       .  A
C882        C883   1.402       .  A
C882        H893   1.082       .  S
C883        C892   1.359       .  A
C883        C884   1.381       .  A
C884        C885   1.403       .  A
C884        O890   1.320       .  A
C885        C886   1.403       .  A
C885        H894   1.082       .  S
C886        C889   1.361       .  A
O887        C888   1.330       .  A
C888        C889   1.391       .  A
C889        H895   1.082       .  S
O890        C891   1.331       .  A
C891        C892   1.390       .  A
C892        H896   1.083       .  S
C897        C902   1.381       .  A
C897        C898   1.404       .  A
C897        O903   1.319       .  A
C898        C899   1.402       .  A
C898        H909   1.082       .  S
C899        C908   1.363       .  A
C899        C900   1.381       .  A
C900        C901   1.400       .  A
C900        O906   1.315       .  A
C901        C902   1.400       .  A
C901        H910   1.082       .  S
C902        C905   1.358       .  A
O903        C904   1.330   1_455  A
C904        C905   1.389   1_655  A
C905        H911   1.083       .  S
O906        C907   1.329       .  A
C907        C908   1.390       .  A
C908        H912   1.082       .  S
C913        C918   1.381       .  A
C913        C914   1.401       .  A
C913        O919   1.316       .  A
C914        C915   1.400       .  A
C914        H925   1.082       .  S
C915        C924   1.360       .  A
C915        C916   1.380       .  A
C916        C917   1.406       .  A
C916        O922   1.320       .  A
C917        C918   1.405       .  A
C917        H926   1.082       .  S
C918        C921   1.366       .  A
O919        C920   1.329       .  A
C920        C921   1.392       .  A
C921        H927   1.082       .  S
O922        C923   1.332       .  A
C923        C924   1.389       .  A
C924        H928   1.082       .  S
C929        C934   1.381       .  A
C929        C930   1.403       .  A
C929        O935   1.319       .  A
C930        C931   1.403       .  A
C930        H941   1.082       .  S
C931        C940   1.360       .  A
C931        C932   1.381   1_565  A
C932        C933   1.404       .  A
C932        O938   1.321       .  A
C933        C934   1.403   1_545  A
C933        H942   1.082       .  S
C934        C937   1.361       .  A
O935        C936   1.330       .  A
C936        C937   1.390       .  A
C937        H943   1.082   1_565  S
O938        C939   1.331       .  A
C939        C940   1.391   1_545  A
C940        H944   1.083       .  S
C945        C950   1.381       .  A
C945        C946   1.404       .  A
C945        O951   1.320       .  A
C946        C947   1.404       .  A
C946        H957   1.082       .  S
C947        C956   1.363       .  A
C947        C948   1.381       .  A
C948        C949   1.401       .  A
C948        O954   1.317   1_545  A
C949        C950   1.400       .  A
C949        H958   1.082   1_545  S
C950        C953   1.358       .  A
O951        C952   1.330       .  A
C952        C953   1.389       .  A
C953        H959   1.083       .  S
O954        C955   1.329       .  A
C955        C956   1.391   1_565  A
C956        H960   1.082       .  S
C961        C966   1.381       .  A
C961        C962   1.403       .  A
C961        O967   1.320       .  A
C962        C963   1.404       .  A
C962        H973   1.082       .  S
C963        C972   1.362       .  A
C963        C964   1.381       .  A
C964        C965   1.405       .  A
C964        O970   1.322       .  A
C965        C966   1.404       .  A
C965        H974   1.082       .  S
C966        C969   1.363       .  A
O967        C968   1.330       .  A
C968        C969   1.391       .  A
C969        H975   1.082       .  S
O970        C971   1.331       .  A
C971        C972   1.392       .  A
C972        H976   1.082       .  S
C977        C982   1.381       .  A
C977        C978   1.404       .  A
C977        O983   1.320       .  A
C978        C979   1.404       .  A
C978        H989   1.082       .  S
C979        C988   1.363       .  A
C979        C980   1.381       .  A
C980        C981   1.400       .  A
C980        O986   1.316       .  A
C981        C982   1.399       .  A
C981        H990   1.082       .  S
C982        C985   1.357       .  A
O983        C984   1.331       .  A
C984        C985   1.388       .  A
C985        H991   1.082       .  S
O986        C987   1.329       .  A
C987        C988   1.391       .  A
C988        H992   1.082       .  S
C993        C998   1.381       .  A
C993        C994   1.405       .  A
C993        O999   1.320       .  A
C994        C995   1.404       .  A
C994       H1005   1.082       .  S
C995       C1004   1.364       .  A
C995        C996   1.381       .  A
C996        C997   1.400       .  A
C996       O1002   1.315       .  A
C997        C998   1.399       .  A
C997       H1006   1.082       .  S
C998       C1001   1.358       .  A
O999       C1000   1.331       .  A
C1000      C1001   1.388       .  A
C1001      H1007   1.083       .  S
O1002      C1003   1.328       .  A
C1003      C1004   1.391       .  A
C1004      H1008   1.082       .  S
C1009      C1014   1.381       .  A
C1009      C1010   1.404       .  A
C1009      O1015   1.318       .  A
C1010      C1011   1.403       .  A
C1010      H1021   1.082       .  S
C1011      C1020   1.364       .  A
C1011      C1012   1.381       .  A
C1012      C1013   1.400       .  A
C1012      O1018   1.314       .  A
C1013      C1014   1.398       .  A
C1013      H1022   1.082       .  S
C1014      C1017   1.360       .  A
O1015      C1016   1.331       .  A
C1016      C1017   1.388       .  A
C1017      H1023   1.082       .  S
O1018      C1019   1.328       .  A
C1019      C1020   1.391       .  A
C1020      H1024   1.082       .  S
C1025      C1030   1.381       .  A
C1025      C1026   1.398       .  A
C1025      O1031   1.313       .  A
C1026      C1027   1.397       .  A
C1026      H1037   1.082       .  S
C1027      C1036   1.355       .  A
C1027      C1028   1.381       .  A
C1028      C1029   1.404       .  A
C1028      O1034   1.319       .  A
C1029      C1030   1.403       .  A
C1029      H1038   1.082       .  S
C1030      C1033   1.363       .  A
O1031      C1032   1.327       .  A
C1032      C1033   1.391       .  A
C1033      H1039   1.082       .  S
O1034      C1035   1.330       .  A
C1035      C1036   1.387       .  A
C1036      H1040   1.082       .  S
C1041      C1046   1.381       .  A
C1041      C1042   1.398       .  A
C1041      O1047   1.313       .  A
C1042      C1043   1.397       .  A
C1042      H1053   1.082       .  S
C1043      C1052   1.356       .  A
C1043      C1044   1.381       .  A
C1044      C1045   1.404       .  A
C1044      O1050   1.319       .  A
C1045      C1046   1.403       .  A
C1045      H1054   1.082       .  S
C1046      C1049   1.363       .  A
O1047      C1048   1.327       .  A
C1048      C1049   1.390       .  A
C1049      H1055   1.082       .  S
O1050      C1051   1.330       .  A
C1051      C1052   1.388       .  A
C1052      H1056   1.083       .  S
C1057      C1062   1.381       .  A
C1057      C1058   1.401       .  A
C1057      O1063   1.316       .  A
C1058      C1059   1.400       .  A
C1058      H1069   1.082       .  S
C1059      C1068   1.360       .  A
C1059      C1060   1.380       .  A
C1060      C1061   1.407       .  A
C1060      O1066   1.321       .  A
C1061      C1062   1.405       .  A
C1061      H1070   1.082       .  S
C1062      C1065   1.365       .  A
O1063      C1064   1.329       .  A
C1064      C1065   1.392       .  A
C1065      H1071   1.082       .  S
O1066      C1067   1.333       .  A
C1067      C1068   1.388       .  A
C1068      H1072   1.082       .  S
C1073      C1078   1.381       .  A
C1073      C1074   1.402       .  A
C1073      O1079   1.318       .  A
C1074      C1075   1.402       .  A
C1074      H1085   1.082       .  S
C1075      C1084   1.359       .  A
C1075      C1076   1.381       .  A
C1076      C1077   1.404       .  A
C1076      O1082   1.321       .  A
C1077      C1078   1.404       .  A
C1077      H1086   1.082       .  S
C1078      C1081   1.363       .  A
O1079      C1080   1.330       .  A
C1080      C1081   1.391       .  A
C1081      H1087   1.082       .  S
O1082      C1083   1.331       .  A
C1083      C1084   1.390       .  A
C1084      H1088   1.082       .  S
C1089      C1094   1.381       .  A
C1089      C1090   1.403       .  A
C1089      O1095   1.320       .  A
C1090      C1091   1.403       .  A
C1090      H1101   1.082       .  S
C1091      C1100   1.361       .  A
C1091      C1092   1.381       .  A
C1092      C1093   1.401       .  A
C1092      O1098   1.317       .  A
C1093      C1094   1.401       .  A
C1093      H1102   1.082       .  S
C1094      C1097   1.358       .  A
O1095      C1096   1.331       .  A
C1096      C1097   1.389       .  A
C1097      H1103   1.082       .  S
O1098      C1099   1.330       .  A
C1099      C1100   1.390       .  A
C1100      H1104   1.082       .  S
C1105      C1110   1.381       .  A
C1105      C1106   1.405       .  A
C1105      O1111   1.320       .  A
C1106      C1107   1.404       .  A
C1106      H1117   1.082       .  S
C1107      C1116   1.365       .  A
C1107      C1108   1.381       .  A
C1108      C1109   1.402       .  A
C1108      O1114   1.317       .  A
C1109      C1110   1.401       .  A
C1109      H1118   1.082       .  S
C1110      C1113   1.359       .  A
O1111      C1112   1.330       .  A
C1112      C1113   1.389       .  A
C1113      H1119   1.083       .  S
O1114      C1115   1.330       .  A
C1115      C1116   1.392       .  A
C1116      H1120   1.082       .  S
C1121      C1126   1.381       .  A
C1121      C1122   1.405       .  A
C1121      O1127   1.321       .  A
C1122      C1123   1.404   1_556  A
C1122      H1133   1.082       .  S
C1123      C1132   1.362       .  A
C1123      C1124   1.381       .  A
C1124      C1125   1.402       .  A
C1124      O1130   1.319       .  A
C1125      C1126   1.401   1_554  A
C1125      H1134   1.082       .  S
C1126      C1129   1.359       .  A
O1127      C1128   1.332       .  A
C1128      C1129   1.389       .  A
C1129      H1135   1.082       .  S
O1130      C1131   1.330       .  A
C1131      C1132   1.390       .  A
C1132      H1136   1.082       .  S
C1137      C1142   1.381       .  A
C1137      C1138   1.403       .  A
C1137      O1143   1.320       .  A
C1138      C1139   1.404   1_554  A
C1138      H1149   1.082       .  S
C1139      C1148   1.362       .  A
C1139      C1140   1.381       .  A
C1140      C1141   1.405   1_556  A
C1140      O1146   1.321       .  A
C1141      C1142   1.404       .  A
C1141      H1150   1.082       .  S
C1142      C1145   1.361       .  A
O1143      C1144   1.330       .  A
C1144      C1145   1.391       .  A
C1145      H1151   1.083       .  S
O1146      C1147   1.332       .  A
C1147      C1148   1.391       .  A
C1148      H1152   1.082       .  S
C1153      C1158   1.381       .  A
C1153      C1154   1.403       .  A
C1153      O1159   1.319       .  A
C1154      C1155   1.402       .  A
C1154      H1165   1.082       .  S
C1155      C1164   1.360       .  A
C1155      C1156   1.381       .  A
C1156      C1157   1.405       .  A
C1156      O1162   1.321       .  A
C1157      C1158   1.404       .  A
C1157      H1166   1.082       .  S
C1158      C1161   1.363       .  A
O1159      C1160   1.331       .  A
C1160      C1161   1.391       .  A
C1161      H1167   1.082       .  S
O1162      C1163   1.331       .  A
C1163      C1164   1.390       .  A
C1164      H1168   1.082       .  S
C1169      C1174   1.381       .  A
C1169      C1170   1.406       .  A
C1169      O1175   1.321   1_455  A
C1170      C1171   1.405       .  A
C1170      H1181   1.082       .  S
C1171      C1180   1.366       .  A
C1171      C1172   1.381       .  A
C1172      C1173   1.400       .  A
C1172      O1178   1.315       .  A
C1173      C1174   1.399       .  A
C1173      H1182   1.082       .  S
C1174      C1177   1.358       .  A
O1175      C1176   1.332       .  A
C1176      C1177   1.389   1_655  A
C1177      H1183   1.082       .  S
O1178      C1179   1.329       .  A
C1179      C1180   1.392       .  A
C1180      H1184   1.082       .  S
C1185      C1190   1.381       .  A
C1185      C1186   1.399       .  A
C1185      O1191   1.315       .  A
C1186      C1187   1.398       .  A
C1186      H1197   1.082       .  S
C1187      C1196   1.356       .  A
C1187      C1188   1.381       .  A
C1188      C1189   1.407       .  A
C1188      O1194   1.322       .  A
C1189      C1190   1.406       .  A
C1189      H1198   1.082       .  S
C1190      C1193   1.365       .  A
O1191      C1192   1.328       .  A
C1192      C1193   1.392       .  A
C1193      H1199   1.082       .  S
O1194      C1195   1.333       .  A
C1195      C1196   1.388       .  A
C1196      H1200   1.083       .  S
C1201      C1206   1.380   1_565  A
C1201      C1202   1.402       .  A
C1201      O1207   1.316       .  A
C1202      C1203   1.400       .  A
C1202      H1213   1.082       .  S
C1203      C1212   1.362       .  A
C1203      C1204   1.380       .  A
C1204      C1205   1.406   1_565  A
C1204      O1210   1.318       .  A
C1205      C1206   1.404       .  A
C1205      H1214   1.082       .  S
C1206      C1209   1.367       .  A
O1207      C1208   1.330   1_565  A
C1208      C1209   1.392       .  A
C1209      H1215   1.082       .  S
O1210      C1211   1.331       .  A
C1211      C1212   1.389       .  A
C1212      H1216   1.082       .  S
C1217      C1222   1.380       .  A
C1217      C1218   1.406       .  A
C1217      O1223   1.323       .  A
C1218      C1219   1.406       .  A
C1218      H1229   1.082       .  S
C1219      C1228   1.365       .  A
C1219      C1220   1.380       .  A
C1220      C1221   1.404       .  A
C1220      O1226   1.321       .  A
C1221      C1222   1.404       .  A
C1221      H1230   1.082       .  S
C1222      C1225   1.362       .  A
O1223      C1224   1.332       .  A
C1224      C1225   1.391       .  A
C1225      H1231   1.082       .  S
O1226      C1227   1.332       .  A
C1227      C1228   1.392       .  A
C1228      H1232   1.082       .  S
C1233      C1238   1.380       .  A
C1233      C1234   1.407       .  A
C1233      O1239   1.322       .  A
C1234      C1235   1.406       .  A
C1234      H1245   1.082       .  S
C1235      C1244   1.367       .  A
C1235      C1236   1.381       .  A
C1236      C1237   1.401       .  A
C1236      O1242   1.317       .  A
C1237      C1238   1.400       .  A
C1237      H1246   1.082       .  S
C1238      C1241   1.360       .  A
O1239      C1240   1.333       .  A
C1240      C1241   1.389       .  A
C1241      H1247   1.082       .  S
O1242      C1243   1.330       .  A
C1243      C1244   1.392       .  A
C1244      H1248   1.082       .  S
C1249      C1254   1.380       .  A
C1249      C1250   1.405       .  A
C1249      O1255   1.321       .  A
C1250      C1251   1.405       .  A
C1250      H1261   1.082       .  S
C1251      C1260   1.363       .  A
C1251      C1252   1.381       .  A
C1252      C1253   1.404       .  A
C1252      O1258   1.320       .  A
C1253      C1254   1.404       .  A
C1253      H1262   1.082       .  S
C1254      C1257   1.363       .  A
O1255      C1256   1.331       .  A
C1256      C1257   1.392       .  A
C1257      H1263   1.082       .  S
O1258      C1259   1.330       .  A
C1259      C1260   1.392       .  A
C1260      H1264   1.082       .  S
C1265      C1270   1.381       .  A
C1265      C1266   1.401       .  A
C1265      O1271   1.317       .  A
C1266      C1267   1.401       .  A
C1266      H1277   1.082       .  S
C1267      C1276   1.358       .  A
C1267      C1268   1.381       .  A
C1268      C1269   1.405       .  A
C1268      O1274   1.321       .  A
C1269      C1270   1.404       .  A
C1269      H1278   1.082       .  S
C1270      C1273   1.363       .  A
O1271      C1272   1.330       .  A
C1272      C1273   1.390       .  A
C1273      H1279   1.082       .  S
O1274      C1275   1.331       .  A
C1275      C1276   1.389       .  A
C1276      H1280   1.083       .  S
C1281      C1286   1.381       .  A
C1281      C1282   1.402   1_565  A
C1281      O1287   1.316       .  A
C1282      C1283   1.400       .  A
C1282      H1293   1.082       .  S
C1283      C1292   1.361       .  A
C1283      C1284   1.381   1_545  A
C1284      C1285   1.402       .  A
C1284      O1290   1.316       .  A
C1285      C1286   1.401       .  A
C1285      H1294   1.082       .  S
C1286      C1289   1.361       .  A
O1287      C1288   1.329       .  A
C1288      C1289   1.389       .  A
C1289      H1295   1.082       .  S
O1290      C1291   1.330   1_565  A
C1291      C1292   1.389       .  A
C1292      H1296   1.082       .  S
C1297      C1302   1.381       .  A
C1297      C1298   1.406       .  A
C1297      O1303   1.321       .  A
C1298      C1299   1.405       .  A
C1298      H1309   1.082       .  S
C1299      C1308   1.365       .  A
C1299      C1300   1.381       .  A
C1300      C1301   1.398       .  A
C1300      O1306   1.314   1_545  A
C1301      C1302   1.397       .  A
C1301      H1310   1.082       .  S
C1302      C1305   1.355       .  A
O1303      C1304   1.332       .  A
C1304      C1305   1.387       .  A
C1305      H1311   1.083       .  S
O1306      C1307   1.327       .  A
C1307      C1308   1.391   1_565  A
C1308      H1312   1.082       .  S
C1313      C1318   1.381       .  A
C1313      C1314   1.404   1_556  A
C1313      O1319   1.320       .  A
C1314      C1315   1.403       .  A
C1314      H1325   1.082       .  S
C1315      C1324   1.362       .  A
C1315      C1316   1.381       .  A
C1316      C1317   1.401   1_554  A
C1316      O1322   1.317       .  A
C1317      C1318   1.400       .  A
C1317      H1326   1.082       .  S
C1318      C1321   1.359       .  A
O1319      C1320   1.330       .  A
C1320      C1321   1.389       .  A
C1321      H1327   1.083       .  S
O1322      C1323   1.329       .  A
C1323      C1324   1.391       .  A
C1324      H1328   1.082       .  S
C1329      C1334   1.380       .  A
C1329      C1330   1.407       .  A
C1329      O1335   1.323       .  A
C1330      C1331   1.407       .  A
C1330      H1341   1.082       .  S
C1331      C1340   1.366       .  A
C1331      C1332   1.381       .  A
C1332      C1333   1.401       .  A
C1332      O1338   1.318       .  A
C1333      C1334   1.400       .  A
C1333      H1342   1.082       .  S
C1334      C1337   1.358       .  A
O1335      C1336   1.332       .  A
C1336      C1337   1.389       .  A
C1337      H1343   1.083       .  S
O1338      C1339   1.330       .  A
C1339      C1340   1.393       .  A
C1340      H1344   1.082       .  S
C1345      C1350   1.381       .  A
C1345      C1346   1.403       .  A
C1345      O1351   1.317       .  A
C1346      C1347   1.402       .  A
C1346      H1357   1.082       .  S
C1347      C1356   1.361       .  A
C1347      C1348   1.381       .  A
C1348      C1349   1.403       .  A
C1348      O1354   1.318       .  A
C1349      C1350   1.401       .  A
C1349      H1358   1.082       .  S
C1350      C1353   1.361       .  A
O1351      C1352   1.330       .  A
C1352      C1353   1.389       .  A
C1353      H1359   1.082       .  S
O1354      C1355   1.330       .  A
C1355      C1356   1.391       .  A
C1356      H1360   1.082       .  S
C1361      C1366   1.381       .  A
C1361      C1362   1.403       .  A
C1361      O1367   1.317       .  A
C1362      C1363   1.402       .  A
C1362      H1373   1.082       .  S
C1363      C1372   1.361       .  A
C1363      C1364   1.381       .  A
C1364      C1365   1.404       .  A
C1364      O1370   1.319       .  A
C1365      C1366   1.403       .  A
C1365      H1374   1.082       .  S
C1366      C1369   1.363       .  A
O1367      C1368   1.330       .  A
C1368      C1369   1.390       .  A
C1369      H1375   1.082       .  S
O1370      C1371   1.330       .  A
C1371      C1372   1.391       .  A
C1372      H1376   1.083       .  S
C1377      C1382   1.381       .  A
C1377      C1378   1.403       .  A
C1377      O1383   1.318       .  A
C1378      C1379   1.402   1_554  A
C1378      H1389   1.082       .  S
C1379      C1388   1.362       .  A
C1379      C1380   1.380       .  A
C1380      C1381   1.405       .  A
C1380      O1386   1.319       .  A
C1381      C1382   1.404   1_556  A
C1381      H1390   1.082       .  S
C1382      C1385   1.364       .  A
O1383      C1384   1.330       .  A
C1384      C1385   1.391       .  A
C1385      H1391   1.082       .  S
O1386      C1387   1.331       .  A
C1387      C1388   1.390       .  A
C1388      H1392   1.082       .  S
C1393      C1398   1.381       .  A
C1393      C1394   1.403       .  A
C1393      O1399   1.318       .  A
C1394      C1395   1.402       .  A
C1394      H1405   1.082       .  S
C1395      C1404   1.361       .  A
C1395      C1396   1.381       .  A
C1396      C1397   1.401       .  A
C1396      O1402   1.316       .  A
C1397      C1398   1.401       .  A
C1397      H1406   1.082       .  S
C1398      C1401   1.360       .  A
O1399      C1400   1.330       .  A
C1400      C1401   1.390       .  A
C1401      H1407   1.082       .  S
O1402      C1403   1.329       .  A
C1403      C1404   1.390       .  A
C1404      H1408   1.082       .  S
C1409      C1414   1.381       .  A
C1409      C1410   1.405       .  A
C1409      O1415   1.321       .  A
C1410      C1411   1.404       .  A
C1410      H1421   1.082       .  S
C1411      C1420   1.364       .  A
C1411      C1412   1.381       .  A
C1412      C1413   1.401       .  A
C1412      O1418   1.317       .  A
C1413      C1414   1.401       .  A
C1413      H1422   1.082       .  S
C1414      C1417   1.359       .  A
O1415      C1416   1.331       .  A
C1416      C1417   1.390       .  A
C1417      H1423   1.083       .  S
O1418      C1419   1.329       .  A
C1419      C1420   1.392       .  A
C1420      H1424   1.082       .  S
C1425      C1430   1.381       .  A
C1425      C1426   1.402       .  A
C1425      O1431   1.319       .  A
C1426      C1427   1.402       .  A
C1426      H1437   1.082       .  S
C1427      C1436   1.361       .  A
C1427      C1428   1.381       .  A
C1428      C1429   1.401       .  A
C1428      O1434   1.317       .  A
C1429      C1430   1.401       .  A
C1429      H1438   1.082       .  S
C1430      C1433   1.359       .  A
O1431      C1432   1.330       .  A
C1432      C1433   1.390       .  A
C1433      H1439   1.082       .  S
O1434      C1435   1.329       .  A
C1435      C1436   1.390       .  A
C1436      H1440   1.082       .  S
