geometry optimzed in LAMMPS
_audit_creation_date              2020-12-01 
_audit_creation_method            'lammps2cif' 
_symmetry_space_group_name_H-M    'P1' 
_symmetry_Int_Tables_number       1 
_symmetry_cell_setting            triclinic 
loop_ 
_symmetry_equiv_pos_as_xyz 
  x,y,z 
_cell_length_a                    56.40737947 
_cell_length_b                    56.35944730516946 
_cell_length_c                    54.205824036033135 
_cell_angle_alpha                 89.79542921204771 
_cell_angle_beta                  89.9187546298104 
_cell_angle_gamma                 90.09409702267264 
loop_ 
_atom_site_label 
_atom_site_type_symbol 
_atom_site_fract_x 
_atom_site_fract_y 
_atom_site_fract_z 
_atom_site_charge 
In1        In  0.74928371  0.86946247  0.49782322     1.36900
C2          C  0.79088887  0.89213498  0.49949614     0.77800
O3          O  0.76102621  0.86415380  0.53684129    -0.60700
O4          O  0.74262298  0.83594730  0.51953213    -0.51600
C5          C  0.70725266  0.89149511  0.49900471     0.70400
O6          O  0.72570742  0.90126487  0.49056562    -0.46400
C7          C  0.74797769  0.84651025  0.45492614     0.75100
O8          O  0.77240117  0.90043215  0.50938802    -0.58300
O9          O  0.75466224  0.83684366  0.47471588    -0.48400
O10         O  0.78757636  0.87316327  0.48772354    -0.54700
C11         C  0.75331134  0.84322695  0.53847078     0.85300
O12         O  0.71067429  0.87110935  0.50787618    -0.56600
O13         O  0.74254396  0.86811006  0.45698167    -0.59900
C14         C  0.75366575  0.76951886  0.70265560    -0.10700
C15         C  0.74220949  0.78841076  0.71419997    -0.04500
C16         C  0.73466376  0.78702928  0.73865988    -0.10600
C17         C  0.73879522  0.76605867  0.75235481     0.10300
C18         C  0.75061361  0.74667750  0.74093958    -0.02400
C19         C  0.75807856  0.74839564  0.71595406     0.10100
C20         C  0.76974380  0.72906831  0.70502789    -0.12400
C21         C  0.77365735  0.70815125  0.71824294    -0.12400
C22         C  0.76608531  0.70588358  0.74284105     0.10100
C23         C  0.75462598  0.72541391  0.75440218    -0.02400
C24         C  0.73134100  0.76388597  0.77697586    -0.12600
C25         C  0.73519399  0.74297590  0.79018237    -0.12600
C26         C  0.74674912  0.72356609  0.77925294     0.10300
C27         C  0.75015091  0.70206731  0.79223559    -0.10600
C28         C  0.76123620  0.68301578  0.78051373    -0.04500
C29         C  0.76916149  0.68447892  0.75615947    -0.10700
H30         H  0.77583084  0.72995696  0.68609544     0.07600
H31         H  0.78249021  0.69365758  0.70896227     0.07600
H32         H  0.72232259  0.77833028  0.78615568     0.07700
H33         H  0.72880820  0.74207100  0.80899723     0.07700
H34         H  0.73864931  0.80446348  0.70370747     0.04200
H35         H  0.76385537  0.66659003  0.79067223     0.04200
C36         C  0.77210706  0.78973454  0.25351367    -0.10700
C37         C  0.76335491  0.79200983  0.27743265    -0.04500
C38         C  0.75230043  0.77321113  0.28980226    -0.10600
C39         C  0.74940338  0.75118653  0.27773274     0.10300
C40         C  0.75827882  0.74845315  0.25335642    -0.02400
C41         C  0.76980055  0.76776506  0.24121794     0.10100
C42         C  0.77857972  0.76459455  0.21722105    -0.12400
C43         C  0.77624794  0.74282799  0.20530104    -0.12400
C44         C  0.76483564  0.72355767  0.21688066     0.10100
C45         C  0.75567652  0.72635884  0.24111450    -0.02400
C46         C  0.73760145  0.73204600  0.28912159    -0.12600
C47         C  0.73460191  0.71048422  0.27686712    -0.12600
C48         C  0.74359550  0.70722541  0.25295516     0.10300
C49         C  0.74090644  0.68539173  0.24040298    -0.10600
C50         C  0.75079136  0.68277508  0.21699316    -0.04500
C51         C  0.76238746  0.70143746  0.20495876    -0.10700
H52         H  0.78739254  0.77894749  0.20752324     0.07600
H53         H  0.78357793  0.74117679  0.18692371     0.07600
H54         H  0.73038068  0.73369980  0.30754594     0.07700
H55         H  0.72534457  0.69626864  0.28633200     0.07700
H56         H  0.76581486  0.80875494  0.28695634     0.04200
H57         H  0.74822290  0.66612677  0.20731917     0.04200
In58       In  0.74656325  0.60581289  0.99923223     1.36900
C59         C  0.70449291  0.58310008  0.99999341     0.77800
O60         O  0.74278871  0.63838977  0.02247766    -0.60700
O61         O  0.75652164  0.60717378  0.03916374    -0.51600
C62         C  0.78929939  0.58491562  0.99840885     0.70400
O63         O  0.77089658  0.57445567  0.00611239    -0.46400
C64         C  0.74300393  0.63087885  0.95767425     0.75100
O65         O  0.72297807  0.57438694  0.99054937    -0.58300
O66         O  0.74960614  0.63992914  0.97773615    -0.48400
O67         O  0.70778124  0.60301292  0.00997993    -0.54700
C68         C  0.75169542  0.62889024  0.04140450     0.85300
O69         O  0.78546591  0.60537597  0.98988761    -0.56600
O70         O  0.73890059  0.60890222  0.95876083    -0.59900
C71         C  0.75268973  0.20566430  0.20729053    -0.10700
C72         C  0.76682394  0.18867565  0.21883496    -0.04500
C73         C  0.77336781  0.19059149  0.24351560    -0.10600
C74         C  0.76594232  0.21057363  0.25723171     0.10300
C75         C  0.75140071  0.22806983  0.24573247    -0.02400
C76         C  0.74468528  0.22558433  0.22063874     0.10100
C77         C  0.73011163  0.24290251  0.20970674    -0.12400
C78         C  0.72218197  0.26244362  0.22318351    -0.12400
C79         C  0.72862738  0.26534484  0.24800277     0.10100
C80         C  0.74344464  0.24799402  0.25938392    -0.02400
C81         C  0.77270953  0.21363164  0.28191934    -0.12600
C82         C  0.76531630  0.23346652  0.29518875    -0.12600
C83         C  0.75055789  0.25067503  0.28433348     0.10300
C84         C  0.74288666  0.27073697  0.29760618    -0.10600
C85         C  0.72786300  0.28720018  0.28645483    -0.04500
C86         C  0.72066209  0.28501093  0.26197410    -0.10700
H87         H  0.72468015  0.24139332  0.19062552     0.07600
H88         H  0.71089505  0.27526944  0.21405523     0.07600
H89         H  0.78393303  0.20076019  0.29106750     0.07700
H90         H  0.77113619  0.23514920  0.31412614     0.07700
H91         H  0.77253279  0.17327667  0.20840923     0.04200
H92         H  0.72222520  0.30259094  0.29693324     0.04200
C93         C  0.74125491  0.27178182  0.70660844    -0.10700
C94         C  0.75418506  0.28986789  0.71788718    -0.04500
C95         C  0.76355420  0.28731936  0.74151443    -0.10600
C96         C  0.75944690  0.26609978  0.75485627     0.10300
C97         C  0.74614628  0.24751007  0.74374134    -0.02400
C98         C  0.73710674  0.25029305  0.71943533     0.10100
C99         C  0.72421549  0.23162900  0.70871155    -0.12400
C100        C  0.72038561  0.21043023  0.72152808    -0.12400
C101        C  0.72930603  0.20720665  0.74549413     0.10100
C102        C  0.74221363  0.22596468  0.75679591    -0.02400
C103        C  0.76839388  0.26287680  0.77879408    -0.12600
C104        C  0.76432786  0.24179877  0.79172380    -0.12600
C105        C  0.75129592  0.22317270  0.78109019     0.10300
C106        C  0.74738095  0.20159065  0.79385838    -0.10600
C107        C  0.73489002  0.18330363  0.78235192    -0.04500
C108        C  0.72580295  0.18572017  0.75856769    -0.10700
H109        H  0.71697796  0.23332805  0.69029951     0.07600
H110        H  0.71041037  0.19651917  0.71250469     0.07600
H111        H  0.77861401  0.27668230  0.78769654     0.07700
H112        H  0.77167833  0.24011246  0.81008113     0.07700
H113        H  0.75775230  0.30609666  0.70765819     0.04200
H114        H  0.73183486  0.16683399  0.79232827     0.04200
In115      In  0.75072788  0.37231538  0.50139983     1.36900
C116        C  0.79298568  0.39380979  0.50030860     0.77800
O117        O  0.74040476  0.37059060  0.54146344    -0.60700
O118        O  0.75709795  0.34063858  0.52546639    -0.51600
C119        C  0.70906708  0.39469221  0.49997760     0.70400
O120        O  0.72778579  0.40464067  0.50749721    -0.46400
C121        C  0.75303503  0.34671499  0.46045820     0.75100
O122        O  0.77466480  0.40309141  0.49109860    -0.58300
O123        O  0.75901490  0.36823214  0.46136231    -0.48400
O124        O  0.78925467  0.37440054  0.51124022    -0.54700
C125        C  0.74750864  0.34955002  0.54428472     0.85300
O126        O  0.71204076  0.37384346  0.49224804    -0.56600
O127        O  0.74518775  0.33837532  0.48046571    -0.59900
In128      In  0.75183246  0.10518684  0.00196086     1.36900
C129        C  0.71008398  0.08219977  0.00161944     0.77800
O130        O  0.75821524  0.13782142  0.02450855    -0.60700
O131        O  0.74264630  0.10794542  0.04216041    -0.51600
C132        C  0.79411964  0.08357477  0.00268675     0.70400
O133        O  0.77586345  0.07424204  0.99336686    -0.46400
C134        C  0.75417872  0.12953931  0.95971468     0.75100
O135        O  0.72899431  0.07250914  0.00893302    -0.58300
O136        O  0.74554516  0.13814597  0.97916928    -0.48400
O137        O  0.71285902  0.10313160  0.99388031    -0.54700
C138        C  0.74967109  0.12911355  0.04404110     0.85300
O139        O  0.79043770  0.10345285  0.01251643    -0.56600
O140        O  0.76093095  0.10832815  0.96177328    -0.59900
In141      In  0.86722413  0.48481944  0.74838428     1.36900
C142        C  0.84523525  0.44272377  0.74872254     0.77800
O143        O  0.87162040  0.49507923  0.70883293    -0.60700
O144        O  0.90011062  0.47731946  0.72659431    -0.51600
C145        C  0.84472242  0.52645961  0.74625000     0.70400
O146        O  0.83518292  0.50734692  0.73925266    -0.46400
C147        C  0.89076413  0.48300720  0.79071871     0.75100
O148        O  0.83604485  0.46118077  0.75766905    -0.58300
O149        O  0.90038072  0.48959584  0.77086129    -0.48400
O150        O  0.86497263  0.44618651  0.73842447    -0.54700
C151        C  0.89253465  0.48736666  0.70736337     0.85300
O152        O  0.86517245  0.52395363  0.75525194    -0.56600
O153        O  0.86894319  0.47853130  0.78900826    -0.59900
In154      In  0.13152259  0.48855468  0.24907247     1.36900
C155        C  0.15292648  0.53096960  0.24968526     0.77800
O156        O  0.12897749  0.49688908  0.20872647    -0.60700
O157        O  0.09899220  0.48151026  0.22607365    -0.51600
C158        C  0.15497250  0.44732058  0.24931379     0.70400
O159        O  0.16483789  0.46690673  0.25397454    -0.46400
C160        C  0.10901758  0.48582912  0.29198958     0.75100
O161        O  0.16312214  0.51226266  0.24263760    -0.58300
O162        O  0.09935738  0.49395247  0.27279045    -0.48400
O163        O  0.13195713  0.52782316  0.25711303    -0.54700
C164        C  0.10782227  0.49002544  0.20660322     0.85300
O165        O  0.13339345  0.44903161  0.24357110    -0.56600
O166        O  0.13041054  0.47997904  0.28935157    -0.59900
C167        C  0.94857718  0.51083920  0.98931599    -0.10700
C168        C  0.94624992  0.50147282  0.96571262    -0.04500
C169        C  0.96382477  0.48739197  0.95499107    -0.10600
C170        C  0.98494696  0.48270786  0.96816870     0.10300
C171        C  0.98787160  0.49244682  0.99214102    -0.02400
C172        C  0.96961813  0.50658052  0.00279225     0.10100
C173        C  0.97286257  0.51587764  0.02655010    -0.12400
C174        C  0.99355516  0.51124986  0.03981708    -0.12400
C175        C  0.01167920  0.49715687  0.02976370     0.10100
C176        C  0.00893338  0.48774817  0.00563902    -0.02400
C177        C  0.00291658  0.46824163  0.95834521    -0.12600
C178        C  0.02365748  0.46371844  0.97157699    -0.12600
C179        C  0.02707395  0.47336648  0.99514924     0.10300
C180        C  0.04796947  0.46884253  0.00881452    -0.10600
C181        C  0.05035324  0.47841645  0.03233948    -0.04500
C182        C  0.03261073  0.49218594  0.04308483    -0.10700
H183        H  0.95936412  0.52679252  0.03504318     0.07600
H184        H  0.99528948  0.51881970  0.05805713     0.07600
H185        H  0.00102625  0.46020242  0.94035298     0.07700
H186        H  0.03700794  0.45250908  0.96324861     0.07700
H187        H  0.93012474  0.50510814  0.95545506     0.04200
H188        H  0.06627862  0.47455159  0.04284903     0.04200
C189        C  0.95112923  0.46833255  0.50757243    -0.10700
C190        C  0.94868238  0.47590314  0.53188835    -0.04500
C191        C  0.96698679  0.48758678  0.54411293    -0.10600
C192        C  0.98834613  0.49259601  0.53173957     0.10300
C193        C  0.99115872  0.48511521  0.50696145    -0.02400
C194        C  0.97259255  0.47265385  0.49484263     0.10100
C195        C  0.97608456  0.46479233  0.47056856    -0.12400
C196        C  0.99740970  0.46920566  0.45830436    -0.12400
C197        C  0.01577323  0.48194574  0.46979984     0.10100
C198        C  0.01264100  0.48995285  0.49438895    -0.02400
C199        C  0.00681288  0.50496446  0.54344176    -0.12600
C200        C  0.02778350  0.51005197  0.53095235    -0.12600
C201        C  0.03101775  0.50269836  0.50648341     0.10300
C202        C  0.05221418  0.50757805  0.49369390    -0.10600
C203        C  0.05508889  0.49952688  0.46964069    -0.04500
C204        C  0.03741861  0.48667562  0.45761681    -0.10700
H205        H  0.96236558  0.45507041  0.46095034     0.07600
H206        H  0.99938693  0.46254160  0.43971898     0.07600
H207        H  0.00509558  0.51097476  0.56230714     0.07700
H208        H  0.04150312  0.51971909  0.54063229     0.07700
H209        H  0.93231014  0.47213833  0.54173311     0.04200
H210        H  0.07150132  0.50352204  0.45996174     0.04200
C211        C  0.53681345  0.47180270  0.04436889    -0.10700
C212        C  0.55437362  0.48554606  0.03297851    -0.04500
C213        C  0.55193815  0.49433503  0.00905805    -0.10600
C214        C  0.53123644  0.48864643  0.99547456     0.10300
C215        C  0.51301789  0.47472976  0.00677533    -0.02400
C216        C  0.51573039  0.46642376  0.03140927     0.10100
C217        C  0.49741740  0.45298501  0.04229461    -0.12400
C218        C  0.47654109  0.44804454  0.02943455    -0.12400
C219        C  0.47334277  0.45616978  0.00516853     0.10100
C220        C  0.49183159  0.46953631  0.99361158    -0.02400
C221        C  0.52797919  0.49686964  0.97125071    -0.12600
C222        C  0.50718463  0.49179602  0.95832422    -0.12600
C223        C  0.48894689  0.47818378  0.96910781     0.10300
C224        C  0.46755241  0.47339659  0.95642468    -0.10600
C225        C  0.44998266  0.45973835  0.96790047    -0.04500
C226        C  0.45221671  0.45136233  0.99195355    -0.10700
H227        H  0.49909709  0.44620419  0.06091515     0.07600
H228        H  0.46288201  0.43775421  0.03861236     0.07600
H229        H  0.54146229  0.50748052  0.96219203     0.07700
H230        H  0.50542911  0.49887798  0.93984522     0.07700
H231        H  0.57018183  0.49016025  0.04333897     0.04200
H232        H  0.43374769  0.45586197  0.95792688     0.04200
In233      In  0.36799075  0.48333580  0.75051227     1.36900
C234        C  0.34885587  0.52699044  0.75087730     0.77800
O235        O  0.36938025  0.48733917  0.79157918    -0.60700
O236        O  0.40093857  0.47753827  0.77302527    -0.51600
C237        C  0.34361476  0.44247410  0.74934736     0.70400
O238        O  0.33445408  0.46224558  0.74393219    -0.46400
C239        C  0.39113676  0.48029386  0.70795186     0.75100
O240        O  0.33757235  0.50857970  0.75713581    -0.58300
O241        O  0.40072399  0.48764025  0.72746693    -0.48400
O242        O  0.36970191  0.52296372  0.74371597    -0.54700
C243        C  0.39118687  0.48274198  0.79320418     0.85300
O244        O  0.36496208  0.44380392  0.75611338    -0.56600
O245        O  0.36946405  0.47517932  0.71004853    -0.59900
C246        C  0.53539330  0.49245740  0.45751273    -0.10700
C247        C  0.55387833  0.48058392  0.46936670    -0.04500
C248        C  0.55138511  0.47119274  0.49307130    -0.10600
C249        C  0.52957825  0.47375329  0.50567629     0.10300
C250        C  0.51056711  0.48593737  0.49394181    -0.02400
C251        C  0.51343904  0.49524700  0.46972125     0.10100
C252        C  0.49447689  0.50735810  0.45855105    -0.12400
C253        C  0.47292077  0.51012530  0.47079593    -0.12400
C254        C  0.46965442  0.50105547  0.49470778     0.10100
C255        C  0.48865658  0.48887026  0.50645384    -0.02400
C256        C  0.52631745  0.46473922  0.52962957    -0.12600
C257        C  0.50478489  0.46765243  0.54194968    -0.12600
C258        C  0.48580617  0.47969043  0.53072706     0.10300
C259        C  0.46386761  0.48261927  0.54293896    -0.10600
C260        C  0.44534804  0.49431262  0.53098628    -0.04500
C261        C  0.44784200  0.50360284  0.50725697    -0.10700
H262        H  0.49619307  0.51491910  0.44025627     0.07600
H263        H  0.45880016  0.51946455  0.46138340     0.07600
H264        H  0.54044703  0.45539391  0.53902296     0.07700
H265        H  0.50306734  0.46026607  0.56032742     0.07700
H266        H  0.57056813  0.47818097  0.45968564     0.04200
H267        H  0.42868204  0.49681927  0.54068863     0.04200
In268      In  0.63194398  0.48962299  0.25130642     1.36900
C269        C  0.65578035  0.53084538  0.24794989     0.77800
O270        O  0.63079973  0.47931398  0.21138232    -0.60700
O271        O  0.59925860  0.49234612  0.22759900    -0.51600
C272        C  0.65140199  0.44622206  0.25544667     0.70400
O273        O  0.66229550  0.46378767  0.24638690    -0.46400
C274        C  0.60760310  0.49669745  0.29278232     0.75100
O275        O  0.66488627  0.51207286  0.25644070    -0.58300
O276        O  0.59837799  0.48848483  0.27344600    -0.48400
O277        O  0.63487704  0.52820317  0.24020306    -0.54700
C278        C  0.60907261  0.48380420  0.20872321     0.85300
O279        O  0.63117568  0.45124600  0.26379803    -0.56600
O280        O  0.62952949  0.50085112  0.29109442    -0.59900
C281        C  0.23566443  0.27500751  0.79135518    -0.10700
C282        C  0.24547010  0.29388888  0.77803401    -0.04500
C283        C  0.25501339  0.29079674  0.75448267    -0.10600
C284        C  0.25402908  0.26816717  0.74331727     0.10300
C285        C  0.24335378  0.24895838  0.75630574    -0.02400
C286        C  0.23414070  0.25239030  0.78040832     0.10100
C287        C  0.22359053  0.23319400  0.79292415    -0.12400
C288        C  0.22258411  0.21082507  0.78225729    -0.12400
C289        C  0.23189204  0.20692466  0.75861261     0.10100
C290        C  0.24234193  0.22613712  0.74542935    -0.02400
C291        C  0.26341972  0.26420112  0.71967361    -0.12600
C292        C  0.26228195  0.24177535  0.70888886    -0.12600
C293        C  0.25172614  0.22256024  0.72139884     0.10300
C294        C  0.25052443  0.19970006  0.71077730    -0.10600
C295        C  0.24059591  0.18099613  0.72425118    -0.04500
C296        C  0.23122342  0.18424302  0.74778945    -0.10700
H297        H  0.21588946  0.23532875  0.81107455     0.07600
H298        H  0.21451706  0.19655767  0.79275432     0.07600
H299        H  0.27164440  0.27847478  0.70931329     0.07700
H300        H  0.26995887  0.23955538  0.69073554     0.07700
H301        H  0.24725789  0.31104471  0.78689350     0.04200
H302        H  0.23913707  0.16363054  0.71576639     0.04200
In303      In  0.25011494  0.10580853  0.50178272     1.36900
C304        C  0.29128618  0.08288265  0.49754701     0.77800
O305        O  0.24040856  0.11176552  0.46241414    -0.60700
O306        O  0.25743358  0.13986399  0.48147926    -0.51600
C307        C  0.20765134  0.08451748  0.50175420     0.70400
O308        O  0.22614033  0.07448664  0.49382378    -0.46400
C309        C  0.25304673  0.12704346  0.54529821     0.75100
O310        O  0.27271881  0.07291841  0.50554603    -0.58300
O311        O  0.26041375  0.10620137  0.54187882    -0.48400
O312        O  0.28846950  0.10421529  0.49119856    -0.54700
C313        C  0.24796033  0.13282241  0.46179434     0.85300
O314        O  0.21117647  0.10495058  0.51033301    -0.56600
O315        O  0.24387227  0.13662683  0.52661988    -0.59900
C316        C  0.23951307  0.29298148  0.24498452    -0.10700
C317        C  0.24834527  0.29429952  0.22097448    -0.04500
C318        C  0.25927442  0.27498533  0.20957709    -0.10600
C319        C  0.26180256  0.25341578  0.22262133     0.10300
C320        C  0.25330371  0.25177680  0.24724072    -0.02400
C321        C  0.24210985  0.27162406  0.25853101     0.10100
C322        C  0.23414031  0.26961763  0.28300654    -0.12400
C323        C  0.23718081  0.24856171  0.29626014    -0.12400
C324        C  0.24793419  0.22869402  0.28533158     0.10100
C325        C  0.25585820  0.23018306  0.26051699    -0.02400
C326        C  0.27274323  0.23358887  0.21181695    -0.12600
C327        C  0.27477443  0.21223906  0.22468093    -0.12600
C328        C  0.26637694  0.21011738  0.24897366     0.10300
C329        C  0.26806519  0.18845624  0.26211479    -0.10600
C330        C  0.26029663  0.18740309  0.28651092    -0.04500
C331        C  0.25074938  0.20717231  0.29838107    -0.10700
H332        H  0.22568374  0.28441973  0.29214377     0.07600
H333        H  0.23080709  0.24786548  0.31509905     0.07600
H334        H  0.27979661  0.23440642  0.19325673     0.07700
H335        H  0.28302588  0.19738146  0.21544222     0.07700
H336        H  0.24583402  0.31057584  0.21052750     0.04200
H337        H  0.26233972  0.17093995  0.29675352     0.04200
In338      In  0.24578227  0.36499593  0.00054325     1.36900
C339        C  0.28941275  0.38426353  0.99861675     0.77800
O340        O  0.24178755  0.33228741  0.02408420    -0.60700
O341        O  0.25473871  0.36385447  0.04059628    -0.51600
C342        C  0.20415556  0.38792882  0.00211770     0.70400
O343        O  0.22265327  0.39709513  0.99298162    -0.46400
C344        C  0.23959937  0.34120950  0.95885592     0.75100
O345        O  0.27150828  0.39556054  0.00616153    -0.58300
O346        O  0.24732644  0.33148792  0.97820740    -0.48400
O347        O  0.28463993  0.36378245  0.99078184    -0.54700
C348        C  0.25006470  0.34209255  0.04309840     0.85300
O349        O  0.20739534  0.36770700  0.01152974    -0.56600
O350        O  0.23596403  0.36319333  0.96065175    -0.59900
In351      In  0.63064131  0.98416285  0.74539912     1.36900
C352        C  0.65115352  0.02693786  0.74594765     0.77800
O353        O  0.62761899  0.99308019  0.70527053    -0.60700
O354        O  0.59789775  0.97740471  0.72292087    -0.51600
C355        C  0.65367099  0.94269103  0.74541416     0.70400
O356        O  0.66352089  0.96192007  0.75153881    -0.46400
C357        C  0.60743937  0.98118711  0.78783840     0.75100
O358        O  0.66125867  0.00888137  0.73710185    -0.58300
O359        O  0.59805228  0.98926218  0.76846934    -0.48400
O360        O  0.63112464  0.02277199  0.75534147    -0.54700
C361        C  0.60644273  0.98617428  0.70343441     0.85300
O362        O  0.63255199  0.94500995  0.73827830    -0.56600
O363        O  0.62894157  0.97548482  0.78562654    -0.59900
In364      In  0.36770421  0.98948943  0.24393099     1.36900
C365        C  0.34394872  0.03042698  0.24560111     0.77800
O366        O  0.37179231  0.97814395  0.28341286    -0.60700
O367        O  0.39916562  0.99886238  0.26738385    -0.51600
C368        C  0.34628360  0.94718037  0.24364457     0.70400
O369        O  0.33605578  0.96585106  0.25080724    -0.46400
C370        C  0.39217704  0.99322538  0.20206035     0.75100
O371        O  0.33455371  0.01157691  0.23769129    -0.58300
O372        O  0.40046964  0.98353696  0.22114767    -0.48400
O373        O  0.36480464  0.02786033  0.25342133    -0.54700
C374        C  0.39182193  0.98768906  0.28604694     0.85300
O375        O  0.36694005  0.95048965  0.23537776    -0.56600
O376        O  0.37099296  0.00001738  0.20408726    -0.59900
C377        C  0.55348138  0.00177601  0.98707151    -0.10700
C378        C  0.55499589  0.99182645  0.96365294    -0.04500
C379        C  0.53555709  0.98082100  0.95242182    -0.10600
C380        C  0.51369508  0.97935037  0.96515371     0.10300
C381        C  0.51192651  0.98908623  0.98921222    -0.02400
C382        C  0.53185189  0.00045474  0.00017342     0.10100
C383        C  0.52965083  0.01009398  0.02389978    -0.12400
C384        C  0.50833098  0.00851463  0.03679915    -0.12400
C385        C  0.48850261  0.99721027  0.02641494     0.10100
C386        C  0.49019772  0.98748093  0.00235075    -0.02400
C387        C  0.49376623  0.96815276  0.95474402    -0.12600
C388        C  0.47244615  0.96639673  0.96776894    -0.12600
C389        C  0.47031970  0.97583030  0.99159926     0.10300
C390        C  0.44892505  0.97397124  0.00516719    -0.10600
C391        C  0.44753890  0.98406986  0.02853478    -0.04500
C392        C  0.46687994  0.99544298  0.03937750    -0.10700
H393        H  0.54447364  0.01885297  0.03271462     0.07600
H394        H  0.50748160  0.01629405  0.05500760     0.07600
H395        H  0.49460109  0.96037827  0.93653731     0.07700
H396        H  0.45760359  0.95756545  0.95906273     0.07700
H397        H  0.57154778  0.99348225  0.95353434     0.04200
H398        H  0.43121804  0.98213614  0.03901671     0.04200
C399        C  0.54843024  0.96533748  0.50469121    -0.10700
C400        C  0.54950090  0.97255094  0.52917907    -0.04500
C401        C  0.53084396  0.98465438  0.54043507    -0.10600
C402        C  0.50995204  0.98939446  0.52696105     0.10300
C403        C  0.50855355  0.98208475  0.50193906    -0.02400
C404        C  0.52790848  0.97004998  0.49071347     0.10100
C405        C  0.52628140  0.96319697  0.46590746    -0.12400
C406        C  0.50603292  0.96818830  0.45218983    -0.12400
C407        C  0.48674623  0.98009631  0.46289160     0.10100
C408        C  0.48789700  0.98704261  0.48801535    -0.02400
C409        C  0.49070815  0.00150974  0.53755652    -0.12600
C410        C  0.47028185  0.00624283  0.52387071    -0.12600
C411        C  0.46852820  0.99915250  0.49911843     0.10300
C412        C  0.44804004  0.00389090  0.48493223    -0.10600
C413        C  0.44723643  0.99684354  0.46033820    -0.04500
C414        C  0.46622968  0.98529262  0.44916007    -0.10700
H415        H  0.54072438  0.95399216  0.45691137     0.07600
H416        H  0.50556957  0.96260691  0.43310380     0.07600
H417        H  0.49133835  0.00743740  0.55651822     0.07700
H418        H  0.45587038  0.01557477  0.53277895     0.07700
H419        H  0.56541373  0.96877173  0.53974383     0.04200
H420        H  0.43156447  0.00082523  0.44946937     0.04200
C421        C  0.23481810  0.68673195  0.25860442    -0.10700
C422        C  0.24418730  0.68477118  0.28226857    -0.04500
C423        C  0.25628354  0.70351016  0.29340323    -0.10600
C424        C  0.25981248  0.72493387  0.28040083     0.10300
C425        C  0.25053445  0.72723891  0.25620113    -0.02400
C426        C  0.23784924  0.70811173  0.24526057     0.10100
C427        C  0.22862119  0.71089043  0.22140375    -0.12400
C428        C  0.23181895  0.73204838  0.20841834    -0.12400
C429        C  0.24434051  0.75112095  0.21888164     0.10100
C430        C  0.25372826  0.74878584  0.24303311    -0.02400
C431        C  0.27242097  0.74395085  0.29084183    -0.12600
C432        C  0.27569947  0.76509223  0.27781450    -0.12600
C433        C  0.26637967  0.76792240  0.25398432     0.10300
C434        C  0.26919250  0.78938702  0.24071917    -0.10600
C435        C  0.25961106  0.79141764  0.21710086    -0.04500
C436        C  0.24758602  0.77263114  0.20594176    -0.10700
H437        H  0.21886635  0.69668719  0.21261335     0.07600
H438        H  0.22425315  0.73341363  0.19012613     0.07600
H439        H  0.27992153  0.74256007  0.30916582     0.07700
H440        H  0.28548948  0.77927876  0.28659148     0.07700
H441        H  0.24128789  0.66848560  0.29262290     0.04200
H442        H  0.26225417  0.80778766  0.20682632     0.04200
In443      In  0.25048069  0.60599836  0.49939102     1.36900
C444        C  0.29242194  0.58427826  0.49988204     0.77800
O445        O  0.25832436  0.60793665  0.45902735    -0.60700
O446        O  0.24500238  0.63878109  0.47664435    -0.51600
C447        C  0.20865188  0.58439480  0.49802271     0.70400
O448        O  0.22735645  0.57387722  0.50458259    -0.46400
C449        C  0.24726571  0.62811394  0.54236996     0.75100
O450        O  0.27329482  0.57358982  0.49514879    -0.58300
O451        O  0.24159856  0.60665745  0.53971401    -0.48400
O452        O  0.28992238  0.60590067  0.50511804    -0.54700
C453        C  0.25261917  0.62948191  0.45708049     0.85300
O454        O  0.21169183  0.60551588  0.49100226    -0.56600
O455        O  0.25535222  0.63792956  0.52321279    -0.59900
C456        C  0.27361577  0.68593688  0.74067357    -0.10700
C457        C  0.26438334  0.68376155  0.71699291    -0.04500
C458        C  0.25061068  0.70154187  0.70614737    -0.10600
C459        C  0.24645689  0.72292526  0.71900924     0.10300
C460        C  0.25575905  0.72556098  0.74317844    -0.02400
C461        C  0.26919606  0.70689987  0.75418823     0.10100
C462        C  0.27755776  0.70962403  0.77837485    -0.12400
C463        C  0.27299243  0.73032377  0.79156223    -0.12400
C464        C  0.26009682  0.74907244  0.78090939     0.10100
C465        C  0.25140766  0.74678378  0.75647609    -0.02400
C466        C  0.23303561  0.74148836  0.70863824    -0.12600
C467        C  0.22921512  0.76257427  0.72152870    -0.12600
C468        C  0.23828605  0.76563080  0.74540726     0.10300
C469        C  0.23468565  0.78694289  0.75872117    -0.10600
C470        C  0.24350222  0.78878128  0.78263717    -0.04500
C471        C  0.25577687  0.77023255  0.79394204    -0.10700
H472        H  0.28769343  0.69572221  0.78726713     0.07600
H473        H  0.27986636  0.73164407  0.81014560     0.07600
H474        H  0.22541576  0.73986892  0.69041021     0.07700
H475        H  0.21898931  0.77645942  0.71271840     0.07700
H476        H  0.26785912  0.66759282  0.70676931     0.04200
H477        H  0.24027687  0.80494376  0.79296140     0.04200
In478      In  0.25132021  0.86843919  0.99934896     1.36900
C479        C  0.21017299  0.89208856  0.99828654     0.77800
O480        O  0.24457090  0.83630191  0.97606088    -0.60700
O481        O  0.26222766  0.86555955  0.95959079    -0.51600
C482        C  0.29277167  0.89163800  0.00230331     0.70400
O483        O  0.27433298  0.90075246  0.99317628    -0.46400
C484        C  0.24670597  0.84259952  0.04026438     0.75100
O485        O  0.22856894  0.90024762  0.00843747    -0.58300
O486        O  0.25810617  0.83533150  0.02177693    -0.48400
O487        O  0.21320812  0.87240625  0.98776603    -0.54700
C488        C  0.25457190  0.84467986  0.95715266     0.85300
O489        O  0.28973964  0.87097345  0.01071320    -0.56600
O490        O  0.23843307  0.86322073  0.03796318    -0.59900
In491      In  0.13282537  0.98590646  0.75254428     1.36900
C492        C  0.15576650  0.94430313  0.75269983     0.77800
O493        O  0.13042952  0.99619801  0.79234256    -0.60700
O494        O  0.10079392  0.97899974  0.77630279    -0.51600
C495        C  0.15457371  0.02787565  0.75396465     0.70400
O496        O  0.16481389  0.00876911  0.75978561    -0.46400
C497        C  0.10879221  0.98353718  0.71028005     0.75100
O498        O  0.16491524  0.96309626  0.74426586    -0.58300
O499        O  0.09934058  0.98996984  0.73022697    -0.48400
O500        O  0.13547790  0.94715097  0.76199030    -0.54700
C501        C  0.10944745  0.98896013  0.79504859     0.85300
O502        O  0.13374502  0.02524822  0.74598522    -0.56600
O503        O  0.13068394  0.97941167  0.71180663    -0.59900
In504      In  0.87034713  0.98993646  0.25116160     1.36900
C505        C  0.84855801  0.94769329  0.25024795     0.77800
O506        O  0.87261373  0.98070125  0.21110252    -0.60700
O507        O  0.90327123  0.99483629  0.22831034    -0.51600
C508        C  0.84866883  0.03225285  0.25100855     0.70400
O509        O  0.83890153  0.01372846  0.25936700    -0.46400
C510        C  0.89423283  0.99297356  0.29331376     0.75100
O511        O  0.83887334  0.96649854  0.24258025    -0.58300
O512        O  0.90377290  0.98629006  0.27348773    -0.48400
O513        O  0.86872833  0.95083005  0.25971451    -0.54700
C514        C  0.89418354  0.98621492  0.20908312     0.85300
O515        O  0.86882456  0.02874743  0.24167829    -0.56600
O516        O  0.87229688  0.99695291  0.29175727    -0.59900
C517        C  0.95036154  0.00299239  0.01150718    -0.10700
C518        C  0.94825061  0.99198790  0.03447392    -0.04500
C519        C  0.96737412  0.98044118  0.04564160    -0.10600
C520        C  0.98936542  0.97918457  0.03320103     0.10300
C521        C  0.99156429  0.98947610  0.00936101    -0.02400
C522        C  0.97202889  0.00155067  0.99849009     0.10100
C523        C  0.97465260  0.01169204  0.97494355    -0.12400
C524        C  0.99590794  0.00955425  0.96197592    -0.12400
C525        C  0.01535527  0.99755876  0.97231621     0.10100
C526        C  0.01337400  0.98780903  0.99642366    -0.02400
C527        C  0.00906362  0.96778384  0.04381416    -0.12600
C528        C  0.03055160  0.96626000  0.03114045    -0.12600
C529        C  0.03301387  0.97596389  0.00738764     0.10300
C530        C  0.05450576  0.97406371  0.99408461    -0.10600
C531        C  0.05607099  0.98374289  0.97046123    -0.04500
C532        C  0.03686990  0.99507132  0.95928066    -0.10700
H533        H  0.96013956  0.02106321  0.96623643     0.07600
H534        H  0.99705754  0.01748202  0.94378976     0.07600
H535        H  0.00791441  0.95970613  0.06192469     0.07700
H536        H  0.04521401  0.95726712  0.04000827     0.07700
H537        H  0.93165230  0.99359297  0.04449987     0.04200
H538        H  0.07236819  0.98142975  0.96005211     0.04200
C539        C  0.96435174  0.99170825  0.45931661    -0.10700
C540        C  0.94587683  0.97942287  0.47090790    -0.04500
C541        C  0.94810095  0.97019282  0.49470998    -0.10600
C542        C  0.96954446  0.97353121  0.50777992     0.10300
C543        C  0.98846167  0.98630461  0.49643193    -0.02400
C544        C  0.98589261  0.99538560  0.47207215     0.10100
C545        C  0.00474690  0.00809326  0.46129727    -0.12400
C546        C  0.02585639  0.01179767  0.47411785    -0.12400
C547        C  0.02888450  0.00281666  0.49809769     0.10100
C548        C  0.01005431  0.98986213  0.50938971    -0.02400
C549        C  0.97266806  0.96436374  0.53168495    -0.12600
C550        C  0.99393837  0.96773156  0.54436610    -0.12600
C551        C  0.01276459  0.98051845  0.53363863     0.10300
C552        C  0.03443514  0.98403811  0.54626345    -0.10600
C553        C  0.05261854  0.99689303  0.53485073    -0.04500
C554        C  0.05020429  0.00642678  0.51125237    -0.10700
H555        H  0.00323605  0.01545242  0.44289569     0.07600
H556        H  0.03985709  0.02173659  0.46508542     0.07600
H557        H  0.95864563  0.95447383  0.54073780     0.07700
H558        H  0.99555172  0.96015557  0.56266076     0.07700
H559        H  0.92952891  0.97633949  0.46084915     0.04200
H560        H  0.06901050  0.00000406  0.54482862     0.04200
C561        C  0.90416904  0.94544203  0.12951029    -0.17600
C562        C  0.91576409  0.94313378  0.10682950    -0.19800
C563        C  0.93566203  0.95717595  0.10133801     0.20800
C564        C  0.94474597  0.97276790  0.11934881    -0.02700
C565        C  0.93301372  0.97514326  0.14218929    -0.05800
C566        C  0.91230038  0.96182660  0.14701408     0.21100
C567        C  0.94139406  0.99161496  0.15972168     0.19300
C568        C  0.96182845  0.00498139  0.15458622    -0.17300
C569        C  0.97334117  0.00277340  0.13186094    -0.19500
C570        C  0.96464278  0.98712069  0.11395835     0.20800
C571        C  0.97427056  0.98699463  0.09013827    -0.32500
C572        C  0.96388357  0.97316919  0.07159895     0.01500
C573        C  0.94544718  0.95735214  0.07756188    -0.23800
C574        C  0.89972879  0.96561293  0.16895101    -0.28400
C575        C  0.90773830  0.98232040  0.18623181     0.07100
C576        C  0.92882385  0.99490653  0.18177504    -0.27100
H577        H  0.88844000  0.93490491  0.13307590     0.11900
H578        H  0.90866495  0.93098778  0.09325389     0.13000
H579        H  0.96853296  0.01761714  0.16788290     0.12100
H580        H  0.98861389  0.01387917  0.12798823     0.11300
H581        H  0.98824473  0.99943657  0.08534441     0.16700
H582        H  0.93732342  0.94690620  0.06308077     0.12600
H583        H  0.88365575  0.95559950  0.17256654     0.15500
H584        H  0.93507995  0.00770116  0.19516698     0.15200
C585        C  0.97238747  0.97413838  0.37104105    -0.17600
C586        C  0.96181555  0.97354198  0.34769488    -0.19800
C587        C  0.94103199  0.98645554  0.34300353     0.20800
C588        C  0.93142882  0.00097516  0.36168109    -0.02700
C589        C  0.94226400  0.00181597  0.38512166    -0.05800
C590        C  0.96247234  0.98781084  0.39002122     0.21100
C591        C  0.93204918  0.01558469  0.40405267     0.19300
C592        C  0.91183699  0.02925612  0.39908998    -0.17300
C593        C  0.90106552  0.02835878  0.37590722    -0.19500
C594        C  0.91037265  0.01381584  0.35732549     0.20800
C595        C  0.89853492  0.01125140  0.33479109    -0.32500
C596        C  0.90758476  0.99625561  0.31642112     0.01500
C597        C  0.92920235  0.98445361  0.32031527    -0.23800
C598        C  0.97139316  0.98652500  0.41417381    -0.28400
C599        C  0.96021696  0.99893025  0.43336970     0.07100
C600        C  0.94123282  0.01418625  0.42800730    -0.27100
H601        H  0.98795214  0.96336954  0.37444827     0.11900
H602        H  0.96949106  0.96241518  0.33353550     0.13000
H603        H  0.90388209  0.04001696  0.41339737     0.12100
H604        H  0.88506092  0.03852395  0.37273713     0.11300
H605        H  0.88209710  0.02073317  0.33163245     0.16700
H606        H  0.93630831  0.97302849  0.30607215     0.12600
H607        H  0.98580580  0.97448007  0.41843474     0.15500
H608        H  0.93249532  0.02351319  0.44292865     0.15200
C609        C  0.08764257  0.03165588  0.89744904    -0.17600
C610        C  0.09929751  0.02931105  0.87483021    -0.19800
C611        C  0.09141860  0.01267906  0.85746421     0.20800
C612        C  0.07106987  0.99887476  0.86251387    -0.02700
C613        C  0.05935927  0.00117182  0.88538474    -0.05800
C614        C  0.06800215  0.01733314  0.90307855     0.21100
C615        C  0.03987360  0.98635339  0.89107827     0.19300
C616        C  0.03158603  0.97022247  0.87339880    -0.17300
C617        C  0.04297618  0.96821125  0.85055439    -0.19500
C618        C  0.06297627  0.98213786  0.84511885     0.20800
C619        C  0.07537813  0.97921192  0.82287976    -0.32500
C620        C  0.09606061  0.99239241  0.81813203     0.01500
C621        C  0.10384833  0.00923499  0.83538421    -0.23800
C622        C  0.05802879  0.01759865  0.92672238    -0.28400
C623        C  0.04002581  0.00148888  0.93306558     0.07100
C624        C  0.03020581  0.98672206  0.91493416    -0.27100
H625        H  0.09445625  0.04413829  0.91085342     0.11900
H626        H  0.11479364  0.04014822  0.87113682     0.13000
H627        H  0.01665323  0.95872723  0.87747365     0.12100
H628        H  0.03650915  0.95533137  0.83738333     0.11300
H629        H  0.06928615  0.96628744  0.80954461     0.16700
H630        H  0.11961845  0.01967257  0.83161794     0.12600
H631        H  0.06576947  0.02866613  0.94093154     0.15500
H632        H  0.01660391  0.97399398  0.92006471     0.15200
C633        C  0.10269291  0.95080756  0.62639406    -0.17600
C634        C  0.09113098  0.94930720  0.60366581    -0.19800
C635        C  0.06963253  0.96123518  0.59980891     0.20800
C636        C  0.05912174  0.97395574  0.61933834    -0.02700
C637        C  0.07071706  0.97532135  0.64235750    -0.05800
C638        C  0.09286709  0.96414166  0.64565873     0.21100
C639        C  0.06062028  0.98862888  0.66171546     0.19300
C640        C  0.03875152  0.99996261  0.65804030    -0.17300
C641        C  0.02747007  0.99896783  0.63506906    -0.19500
C642        C  0.03771521  0.98639254  0.61546917     0.20800
C643        C  0.02787115  0.98736951  0.59168531    -0.32500
C644        C  0.03921779  0.97607155  0.57186861     0.01500
C645        C  0.05937135  0.96205933  0.57631747    -0.23800
C646        C  0.10509852  0.96697083  0.66793071    -0.28400
C647        C  0.09538190  0.98054296  0.68712482     0.07100
C648        C  0.07289423  0.99090049  0.68412976    -0.27100
H649        H  0.11958913  0.94196386  0.62872625     0.11900
H650        H  0.09939433  0.93944819  0.58884967     0.13000
H651        H  0.03069471  0.01015372  0.67272414     0.12100
H652        H  0.01100894  0.00853945  0.63245763     0.11300
H653        H  0.01258089  0.99851415  0.58816438     0.16700
H654        H  0.06826175  0.95361327  0.56092626     0.12600
H655        H  0.12226257  0.95864064  0.67031160     0.15500
H656        H  0.06528044  0.00125799  0.69896103     0.15200
C657        C  0.13825961  0.97311478  0.01888581    -0.17600
C658        C  0.16042900  0.96197582  0.01809788    -0.19800
C659        C  0.16250961  0.93849758  0.00979048     0.20800
C660        C  0.14194089  0.92597045  0.00267728    -0.02700
C661        C  0.11951343  0.93709346  0.00382527    -0.05800
C662        C  0.11772379  0.96090800  0.01161268     0.21100
C663        C  0.09901359  0.92465502  0.99632590     0.19300
C664        C  0.10105358  0.90114463  0.98816839    -0.17300
C665        C  0.12325479  0.89016685  0.98696621    -0.19500
C666        C  0.14381308  0.90248431  0.99395398     0.20800
C667        C  0.16620208  0.89176486  0.99220857    -0.32500
C668        C  0.18679925  0.90406564  0.99933528     0.01500
C669        C  0.18478241  0.92739875  0.00826407    -0.23800
C670        C  0.09564160  0.97241063  0.01079995    -0.28400
C671        C  0.07538491  0.96034263  0.00244445     0.07100
C672        C  0.07704730  0.93632136  0.99590211    -0.27100
H673        H  0.13721990  0.99139933  0.02488996     0.11900
H674        H  0.17601198  0.97185839  0.02365410     0.13000
H675        H  0.08551060  0.89136900  0.98229140     0.12100
H676        H  0.12437230  0.87209700  0.98031698     0.11300
H677        H  0.16756433  0.87371113  0.98552657     0.16700
H678        H  0.20055717  0.93696835  0.01386239     0.12600
H679        H  0.09442461  0.99112772  0.01517188     0.15500
H680        H  0.06152980  0.92728034  0.98876757     0.15200
C681        C  0.22601302  0.89366347  0.73630756    -0.17600
C682        C  0.23673047  0.87125252  0.73574838    -0.19800
C683        C  0.22361104  0.85073343  0.74140635     0.20800
C684        C  0.19934490  0.85280611  0.74737971    -0.02700
C685        C  0.18858588  0.87546586  0.74820131    -0.05800
C686        C  0.20200221  0.89601158  0.74272552     0.21100
C687        C  0.16454551  0.87757275  0.75504373     0.19300
C688        C  0.15136984  0.85707296  0.76054124    -0.17300
C689        C  0.16202046  0.83467215  0.75978483    -0.19500
C690        C  0.18603869  0.83233600  0.75345218     0.20800
C691        C  0.19726476  0.81007675  0.75433623    -0.32500
C692        C  0.22164879  0.80804285  0.74944398     0.01500
C693        C  0.23457764  0.82835424  0.74243874    -0.23800
C694        C  0.19125090  0.91851087  0.74409661    -0.28400
C695        C  0.16735280  0.92072426  0.75126885     0.07100
C696        C  0.15414784  0.90012993  0.75659249    -0.27100
H697        H  0.23660732  0.90920117  0.73206036     0.11900
H698        H  0.25540145  0.87000288  0.73120764     0.13000
H699        H  0.13287140  0.85838680  0.76576144     0.12100
H700        H  0.15154910  0.81918848  0.76456029     0.11300
H701        H  0.18747650  0.79459567  0.76055381     0.16700
H702        H  0.25353717  0.82692077  0.73946490     0.12600
H703        H  0.20152944  0.93427862  0.73987221     0.15500
H704        H  0.13567511  0.90164138  0.76189246     0.15200
C705        C  0.23082671  0.77855323  0.90308316    -0.17600
C706        C  0.23208230  0.76689724  0.88038578    -0.19800
C707        C  0.24813201  0.77454454  0.86222091     0.20800
C708        C  0.26370956  0.79355750  0.86729229    -0.02700
C709        C  0.26226011  0.80547113  0.89006777    -0.05800
C710        C  0.24551007  0.79811901  0.90790419     0.21100
C711        C  0.27690712  0.82532030  0.89457645     0.19300
C712        C  0.29356915  0.83242200  0.87677066    -0.17300
C713        C  0.29500631  0.82061831  0.85419014    -0.19500
C714        C  0.27978728  0.80156300  0.84908048     0.20800
C715        C  0.27913766  0.79153443  0.82551357    -0.32500
C716        C  0.26241248  0.77393087  0.81991187     0.01500
C717        C  0.24772116  0.76470221  0.83851565    -0.23800
C718        C  0.24333467  0.81082902  0.92997583    -0.28400
C719        C  0.25734814  0.83104559  0.93419390     0.07100
C720        C  0.27424296  0.83806328  0.91655025    -0.27100
H721        H  0.21795259  0.77263999  0.91662898     0.11900
H722        H  0.22004375  0.75231334  0.87678914     0.13000
H723        H  0.30508766  0.84747697  0.88006611     0.12100
H724        H  0.30749949  0.82688343  0.84041819     0.11300
H725        H  0.29015202  0.79880294  0.81090200     0.16700
H726        H  0.23456143  0.75138899  0.83390584     0.12600
H727        H  0.23034557  0.80533867  0.94361347     0.15500
H728        H  0.28528937  0.85347143  0.91991781     0.15200
C729        C  0.26252484  0.69806477  0.59414753    -0.17600
C730        C  0.26173874  0.70933725  0.61705701    -0.19800
C731        C  0.25034228  0.69846651  0.63714617     0.20800
C732        C  0.23882927  0.67640847  0.63389267    -0.02700
C733        C  0.23991034  0.66488711  0.61088828    -0.05800
C734        C  0.25208321  0.67566787  0.59103684     0.21100
C735        C  0.22960863  0.64220790  0.60803525     0.19300
C736        C  0.21756533  0.63164832  0.62791174    -0.17300
C737        C  0.21642425  0.64310793  0.65070808    -0.19500
C738        C  0.22737681  0.66524786  0.65397175     0.20800
C739        C  0.22857092  0.67560290  0.67734543    -0.32500
C740        C  0.24180065  0.69644555  0.68106027     0.01500
C741        C  0.25173440  0.70838199  0.66078557    -0.23800
C742        C  0.25412192  0.66362275  0.56860122    -0.28400
C743        C  0.24446951  0.64080411  0.56586657     0.07100
C744        C  0.23201357  0.63027840  0.58553678    -0.27100
H745        H  0.27183215  0.70659288  0.57902864     0.11900
H746        H  0.27059187  0.72627779  0.61922930     0.13000
H747        H  0.20945983  0.61431489  0.62597526     0.12100
H748        H  0.20759105  0.63432748  0.66599121     0.11300
H749        H  0.22117437  0.66630916  0.69314626     0.16700
H750        H  0.26227268  0.72421961  0.66377775     0.12600
H751        H  0.26364741  0.67182208  0.55341630     0.15500
H752        H  0.22432821  0.61276430  0.58338551     0.15200
C753        C  0.23006921  0.69575925  0.40221178    -0.17600
C754        C  0.23181904  0.70739823  0.37944324    -0.19800
C755        C  0.24789525  0.69946237  0.36151140     0.20800
C756        C  0.26285605  0.68003833  0.36680701    -0.02700
C757        C  0.26082001  0.66808129  0.38957819    -0.05800
C758        C  0.24421986  0.67587709  0.40729600     0.21100
C759        C  0.27481311  0.64782094  0.39424455     0.19300
C760        C  0.29134247  0.64026005  0.37661005    -0.17300
C761        C  0.29343315  0.65216851  0.35408132    -0.19500
C762        C  0.27894487  0.67172830  0.34883393     0.20800
C763        C  0.27899181  0.68197170  0.32531051    -0.32500
C764        C  0.26280124  0.69995558  0.31942793     0.01500
C765        C  0.24809763  0.70944118  0.33779611    -0.23800
C766        C  0.24176368  0.66334592  0.42955230    -0.28400
C767        C  0.25524336  0.64282390  0.43391721     0.07100
C768        C  0.27175261  0.63520766  0.41627891    -0.27100
H769        H  0.21726989  0.70197430  0.41562224     0.11900
H770        H  0.22020591  0.72226325  0.37564251     0.13000
H771        H  0.30232042  0.62484726  0.38004561     0.12100
H772        H  0.30586662  0.64562498  0.34045871     0.11300
H773        H  0.28998614  0.67449698  0.31086739     0.16700
H774        H  0.23531777  0.72303511  0.33295427     0.12600
H775        H  0.22903181  0.66921694  0.44322121     0.15500
H776        H  0.28236410  0.61953790  0.41981237     0.15200
C777        C  0.26902197  0.76598887  0.11893994    -0.17600
C778        C  0.26978052  0.77666997  0.09560902    -0.19800
C779        C  0.25512814  0.79609933  0.09015834     0.20800
C780        C  0.23883729  0.80419587  0.10805131    -0.02700
C781        C  0.23803804  0.79340971  0.13154194    -0.05800
C782        C  0.25360787  0.77456790  0.13717250     0.21100
C783        C  0.22269565  0.80244710  0.14984808     0.19300
C784        C  0.20740562  0.82126400  0.14413454    -0.17300
C785        C  0.20808836  0.83184502  0.12080784    -0.19500
C786        C  0.22414491  0.82382971  0.10291280     0.20800
C787        C  0.22642675  0.83574121  0.08036132    -0.32500
C788        C  0.24326153  0.82841785  0.06288049     0.01500
C789        C  0.25710271  0.80817336  0.06753966    -0.23800
C790        C  0.25465612  0.76582262  0.16137912    -0.28400
C791        C  0.24072372  0.77606445  0.17995203     0.07100
C792        C  0.22411042  0.79363744  0.17396852    -0.27100
H793        H  0.28103932  0.75150417  0.12297402     0.11900
H794        H  0.28229638  0.77016090  0.08206456     0.13000
H795        H  0.19546027  0.82830001  0.15795629     0.12100
H796        H  0.19658012  0.84679351  0.11702242     0.11300
H797        H  0.21547435  0.85114028  0.07666269     0.16700
H798        H  0.26999958  0.80239372  0.05400028     0.12600
H799        H  0.26770126  0.75249271  0.16625368     0.15500
H800        H  0.21362005  0.80163602  0.18850742     0.15200
C801        C  0.37983536  0.88998676  0.01416567    -0.17600
C802        C  0.40206566  0.90099729  0.01254259    -0.19800
C803        C  0.40405227  0.92459614  0.00440565     0.20800
C804        C  0.38341031  0.93717669  0.99766966    -0.02700
C805        C  0.36095402  0.92605540  0.99932425    -0.05800
C806        C  0.35916513  0.90236378  0.00766473     0.21100
C807        C  0.34029722  0.93872471  0.99285385     0.19300
C808        C  0.34225690  0.96238952  0.98493321    -0.17300
C809        C  0.36444875  0.97348519  0.98357533    -0.19500
C810        C  0.38512200  0.96107669  0.98995025     0.20800
C811        C  0.40731526  0.97245520  0.98985648    -0.32500
C812        C  0.42780296  0.96024880  0.99733226     0.01500
C813        C  0.42614145  0.93618230  0.00400726    -0.23800
C814        C  0.33677529  0.89144047  0.00923072    -0.28400
C815        C  0.31613158  0.90380715  0.00233259     0.07100
C816        C  0.31806605  0.92750543  0.99431687    -0.27100
H817        H  0.37880499  0.87179470  0.02060332     0.11900
H818        H  0.41770216  0.89111790  0.01792247     0.13000
H819        H  0.32658430  0.97238995  0.97993163     0.12100
H820        H  0.36541933  0.99186195  0.97772288     0.11300
H821        H  0.40849745  0.99121260  0.98550269     0.16700
H822        H  0.44181379  0.92702739  0.01058786     0.12600
H823        H  0.33547098  0.87316378  0.01538279     0.15500
H824        H  0.30226696  0.93718125  0.98902349     0.15200
C825        C  0.26784463  0.87273915  0.26587673    -0.17600
C826        C  0.27825655  0.89527064  0.26463238    -0.19800
C827        C  0.30179713  0.89797079  0.25665927     0.20800
C828        C  0.31525836  0.87766610  0.25075027    -0.02700
C829        C  0.30479947  0.85488812  0.25218549    -0.05800
C830        C  0.28081089  0.85250149  0.25925879     0.21100
C831        C  0.31799020  0.83465230  0.24538689     0.19300
C832        C  0.34178259  0.83728183  0.23824302    -0.17300
C833        C  0.35216646  0.85983442  0.23692020    -0.19500
C834        C  0.33892839  0.88015979  0.24267412     0.20800
C835        C  0.34882452  0.90293088  0.24014543    -0.32500
C836        C  0.33541291  0.92328504  0.24566330     0.01500
C837        C  0.31197590  0.92062278  0.25414485    -0.23800
C838        C  0.26982810  0.83016135  0.25810277    -0.28400
C839        C  0.28247730  0.81026825  0.24984878     0.07100
C840        C  0.30673924  0.81240980  0.24438164    -0.27100
H841        H  0.24944488  0.87120471  0.27144433     0.11900
H842        H  0.26772681  0.91064261  0.26941501     0.13000
H843        H  0.35219658  0.82194427  0.23306762     0.12100
H844        H  0.37042524  0.86141472  0.23089989     0.11300
H845        H  0.36699732  0.90480049  0.23389887     0.16700
H846        H  0.30160403  0.93618957  0.25866268     0.12600
H847        H  0.25100132  0.82851763  0.26183772     0.15500
H848        H  0.31631607  0.79711873  0.23753103     0.15200
C849        C  0.47241077  0.97476617  0.12654787    -0.17600
C850        C  0.46071069  0.97327669  0.14927641    -0.19800
C851        C  0.44025956  0.98678270  0.15369025     0.20800
C852        C  0.43215676  0.00277597  0.13547459    -0.02700
C853        C  0.44416196  0.00454741  0.11271207    -0.05800
C854        C  0.46395810  0.98992919  0.10796951     0.21100
C855        C  0.43541611  0.01980482  0.09414139     0.19300
C856        C  0.41550926  0.03396053  0.09885657    -0.17300
C857        C  0.40356167  0.03213201  0.12137643    -0.19500
C858        C  0.41141875  0.01620273  0.13953915     0.20800
C859        C  0.39851697  0.01297400  0.16138901    -0.32500
C860        C  0.40619467  0.99670997  0.17935776     0.01500
C861        C  0.42735289  0.98405493  0.17566413    -0.23800
C862        C  0.47368172  0.98935079  0.08416077    -0.28400
C863        C  0.46363043  0.00300541  0.06518321     0.07100
C864        C  0.44548912  0.01918627  0.07056706    -0.27100
H865        H  0.48763445  0.96350288  0.12323029     0.11900
H866        H  0.46723233  0.96102465  0.16312014     0.13000
H867        H  0.40865216  0.04579547  0.08478774     0.12100
H868        H  0.38779987  0.04271642  0.12433200     0.11300
H869        H  0.38240131  0.02303416  0.16436106     0.16700
H870        H  0.43339545  0.97160766  0.18957740     0.12600
H871        H  0.48747250  0.97663803  0.07980178     0.15500
H872        H  0.43766264  0.02947747  0.05573077     0.15200
C873        C  0.42210574  0.94368759  0.38561399    -0.17600
C874        C  0.40995204  0.94522673  0.36322724    -0.19800
C875        C  0.41438710  0.96410032  0.34691158     0.20800
C876        C  0.43198504  0.98103042  0.35264736    -0.02700
C877        C  0.44418507  0.97953186  0.37526936    -0.05800
C878        C  0.43877237  0.96107219  0.39205636     0.21100
C879        C  0.46073806  0.99728121  0.38170717     0.19300
C880        C  0.46586225  0.01560967  0.36493949    -0.17300
C881        C  0.45400371  0.01689973  0.34233242    -0.19500
C882        C  0.43671759  0.99997260  0.33623799     0.20800
C883        C  0.42370683  0.00192578  0.31429766    -0.32500
C884        C  0.40569407  0.98550568  0.30890904     0.01500
C885        C  0.40120277  0.96659853  0.32519903    -0.23800
C886        C  0.44872324  0.96136931  0.41568445    -0.28400
C887        C  0.46360037  0.98007306  0.42274578     0.07100
C888        C  0.47048239  0.99733751  0.40546537    -0.27100
H889        H  0.41786880  0.92936075  0.39826075     0.11900
H890        H  0.39667795  0.93195691  0.35893280     0.13000
H891        H  0.47856808  0.02932426  0.36959625     0.12100
H892        H  0.45791063  0.03147778  0.32989352     0.11300
H893        H  0.42720551  0.01649568  0.30169337     0.16700
H894        H  0.38751046  0.95374337  0.32088783     0.12600
H895        H  0.44324127  0.94833317  0.42931772     0.15500
H896        H  0.48170318  0.01193851  0.41125441     0.15200
C897        C  0.58912444  0.94435464  0.89352751    -0.17600
C898        C  0.60060871  0.94609909  0.87075120    -0.19800
C899        C  0.59131791  0.96057308  0.85203386     0.20800
C900        C  0.56976817  0.97271445  0.85590605    -0.02700
C901        C  0.55825544  0.97107546  0.87894703    -0.05800
C902        C  0.56827016  0.95718082  0.89795408     0.21100
C903        C  0.53754057  0.98444582  0.88342609     0.19300
C904        C  0.52778165  0.99819594  0.86435902    -0.17300
C905        C  0.53899100  0.99950729  0.84134930    -0.19500
C906        C  0.56024878  0.98725062  0.83712804     0.20800
C907        C  0.57247654  0.98972517  0.81471433    -0.32500
C908        C  0.59429422  0.97822899  0.81111366     0.01500
C909        C  0.60349353  0.96353717  0.82973011    -0.23800
C910        C  0.55833837  0.95782646  0.92158545    -0.28400
C911        C  0.53918440  0.97292886  0.92670109     0.07100
C912        C  0.52808586  0.98526246  0.90736370    -0.27100
H913        H  0.59699825  0.93361969  0.90796237     0.11900
H914        H  0.61704327  0.93654134  0.86796466     0.13000
H915        H  0.51184112  0.00848190  0.86745911     0.12100
H916        H  0.53139153  0.01063330  0.82708415     0.11300
H917        H  0.56531560  0.00100754  0.80031440     0.16700
H918        H  0.62017313  0.95440803  0.82685894     0.12600
H919        H  0.56695320  0.94849325  0.93662838     0.15500
H920        H  0.51351461  0.99716752  0.91141902     0.15200
C921        C  0.58537966  0.02144769  0.59780297    -0.17600
C922        C  0.59732988  0.02015856  0.62030324    -0.19800
C923        C  0.58869988  0.00562294  0.63935712     0.20800
C924        C  0.56743115  0.99279090  0.63603588    -0.02700
C925        C  0.55545185  0.99395589  0.61325160    -0.05800
C926        C  0.56470202  0.00811674  0.59398992     0.21100
C927        C  0.53496650  0.98000940  0.60931974     0.19300
C928        C  0.52601044  0.96598563  0.62865696    -0.17300
C929        C  0.53765883  0.96517139  0.65143435    -0.19500
C930        C  0.55861176  0.97815313  0.65514440     0.20800
C931        C  0.57122676  0.97632661  0.67736944    -0.32500
C932        C  0.59276856  0.98854709  0.68043341     0.01500
C933        C  0.60126451  0.00331037  0.66146489    -0.23800
C934        C  0.55410758  0.00741655  0.57072322    -0.28400
C935        C  0.53500796  0.99206378  0.56615973     0.07100
C936        C  0.52484278  0.97912647  0.58567358    -0.27100
H937        H  0.59269520  0.03233669  0.58313234     0.11900
H938        H  0.61357026  0.03019261  0.62264169     0.13000
H939        H  0.51028997  0.95521854  0.62598809     0.12100
H940        H  0.53061236  0.95391833  0.66594049     0.11300
H941        H  0.56459417  0.96498604  0.69203106     0.16700
H942        H  0.61772635  0.01298279  0.66389022     0.12600
H943        H  0.56211180  0.01703896  0.55546524     0.15500
H944        H  0.51038559  0.96694908  0.58195451     0.15200
C945        C  0.26164057  0.10373133  0.24065526    -0.17600
C946        C  0.27220445  0.08127010  0.23925466    -0.19800
C947        C  0.29684968  0.07874202  0.24183486     0.20800
C948        C  0.31100439  0.09919236  0.24516131    -0.02700
C949        C  0.30040073  0.12187772  0.24615035    -0.05800
C950        C  0.27554749  0.12410863  0.24437790     0.21100
C951        C  0.31461596  0.14221951  0.24989291     0.19300
C952        C  0.33925478  0.13977241  0.25210132    -0.17300
C953        C  0.34971354  0.11733013  0.25131160    -0.19500
C954        C  0.33572756  0.09696254  0.24815654     0.20800
C955        C  0.34606729  0.07440293  0.24833577    -0.32500
C956        C  0.33218359  0.05389602  0.24523694     0.01500
C957        C  0.30758012  0.05617480  0.24160864    -0.23800
C958        C  0.26504466  0.14650633  0.24755030    -0.28400
C959        C  0.27912510  0.16663002  0.25220451     0.07100
C960        C  0.30388068  0.16449026  0.25263448    -0.27100
H961        H  0.24253408  0.10512195  0.23919952     0.11900
H962        H  0.26104254  0.06582769  0.23663268     0.13000
H963        H  0.35040282  0.15518413  0.25499081     0.12100
H964        H  0.36874512  0.11587696  0.25350784     0.11300
H965        H  0.36506615  0.07282053  0.25084227     0.16700
H966        H  0.29679342  0.04043476  0.23912245     0.12600
H967        H  0.24589315  0.14815270  0.24771805     0.15500
H968        H  0.31463272  0.17993101  0.25678838     0.15200
C969        C  0.29050994  0.33702425  0.12316639    -0.17600
C970        C  0.29323956  0.32644617  0.14632390    -0.19800
C971        C  0.28040034  0.30592461  0.15245316     0.20800
C972        C  0.26573469  0.29511707  0.13463289    -0.02700
C973        C  0.26307294  0.30573141  0.11121450    -0.05800
C974        C  0.27498449  0.32716127  0.10579390     0.21100
C975        C  0.24761038  0.29555867  0.09370642     0.19300
C976        C  0.23570388  0.27435223  0.09945360    -0.17300
C977        C  0.23805849  0.26402027  0.12283704    -0.19500
C978        C  0.25252601  0.27461533  0.14074313     0.20800
C979        C  0.25261606  0.26621003  0.16512688    -0.32500
C980        C  0.26568007  0.27814396  0.18330862     0.01500
C981        C  0.28052301  0.29712649  0.17661059    -0.23800
C982        C  0.27058519  0.33878645  0.08343387    -0.28400
C983        C  0.25468106  0.32916673  0.06624690     0.07100
C984        C  0.24373011  0.30722608  0.07114250    -0.27100
H985        H  0.29999436  0.35331165  0.11911563     0.11900
H986        H  0.30467576  0.33484443  0.15977340     0.13000
H987        H  0.22394031  0.26619558  0.08616018     0.12100
H988        H  0.22795161  0.24817677  0.12717945     0.11300
H989        H  0.24095089  0.25174708  0.17042667     0.16700
H990        H  0.29044972  0.30636383  0.19077139     0.12600
H991        H  0.27944048  0.35545961  0.07946245     0.15500
H992        H  0.23164702  0.29965552  0.05776406     0.15200
C993        C  0.15441315  0.01769880  0.48028151    -0.17600
C994        C  0.13186109  0.00728257  0.48013976    -0.19800
C995        C  0.11220661  0.01955934  0.48952950     0.20800
C996        C  0.11522683  0.04279747  0.49867511    -0.02700
C997        C  0.13801541  0.05328771  0.49887669    -0.05800
C998        C  0.15773795  0.04057767  0.48984091     0.21100
C999        C  0.14113883  0.07624160  0.50867143     0.19300
C1000       C  0.12145371  0.08863227  0.51784404    -0.17300
C1001       C  0.09893241  0.07816901  0.51784750    -0.19500
C1002       C  0.09566450  0.05519141  0.50853085     0.20800
C1003       C  0.07348641  0.04391306  0.51008636    -0.32500
C1004       C  0.07066309  0.02040756  0.50204391     0.01500
C1005       C  0.08988484  0.00855231  0.49117889    -0.23800
C1006       C  0.18045758  0.05082915  0.49082521    -0.28400
C1007       C  0.18373129  0.07362044  0.50076472     0.07100
C1008       C  0.16392515  0.08626699  0.50946918    -0.27100
H1009       H  0.16933071  0.00770775  0.47321922     0.11900
H1010       H  0.12987041  0.98942740  0.47309050     0.13000
H1011       H  0.12353933  0.10628674  0.52538659     0.12100
H1012       H  0.08412508  0.08791375  0.52551770     0.11300
H1013       H  0.05880270  0.05276388  0.51911223     0.16700
H1014       H  0.08782385  0.99019482  0.48565152     0.12600
H1015       H  0.19559761  0.04102375  0.48396751     0.15500
H1016       H  0.16625376  0.10389275  0.51703709     0.15200
C1017       C  0.34208908  0.01223198  0.50994542    -0.17600
C1018       C  0.36447888  0.00154414  0.50986174    -0.19800
C1019       C  0.38470659  0.01464060  0.50321735     0.20800
C1020       C  0.38236404  0.03880079  0.49669661    -0.02700
C1021       C  0.35973692  0.04950828  0.49651841    -0.05800
C1022       C  0.33950440  0.03616819  0.50323250     0.21100
C1023       C  0.35735054  0.07348118  0.48937398     0.19300
C1024       C  0.37754115  0.08655599  0.48257337    -0.17300
C1025       C  0.39994140  0.07595399  0.48272808    -0.19500
C1026       C  0.40253289  0.05209174  0.48966019     0.20800
C1027       C  0.42474262  0.04098398  0.48853635    -0.32500
C1028       C  0.42697843  0.01673807  0.49403130     0.01500
C1029       C  0.40705055  0.00376151  0.50185383    -0.23800
C1030       C  0.31708466  0.04701609  0.50317056    -0.28400
C1031       C  0.31463804  0.07098850  0.49634506     0.07100
C1032       C  0.33484355  0.08400814  0.48924049    -0.27100
H1033       H  0.32675712  0.00171697  0.51510830     0.11900
H1034       H  0.36594631  0.98295932  0.51479564     0.13000
H1035       H  0.37599614  0.10497619  0.47703155     0.12100
H1036       H  0.41521880  0.08635562  0.47714504     0.11300
H1037       H  0.44002723  0.05072578  0.48174858     0.16700
H1038       H  0.40872890  0.98487812  0.50531540     0.12600
H1039       H  0.30158550  0.03686486  0.50861174     0.15500
H1040       H  0.33311565  0.10248901  0.48394293     0.15200
C1041       C  0.27649788  0.19767257  0.40776777    -0.17600
C1042       C  0.27629657  0.20897527  0.38471840    -0.19800
C1043       C  0.25945665  0.20265214  0.36684520     0.20800
C1044       C  0.24205931  0.18544523  0.37260218    -0.02700
C1045       C  0.24243894  0.17387256  0.39568651    -0.05800
C1046       C  0.25997883  0.17973475  0.41321949     0.21100
C1047       C  0.22595018  0.15561998  0.40072457     0.19300
C1048       C  0.20854877  0.14990614  0.38328997    -0.17300
C1049       C  0.20813991  0.16139390  0.36045669    -0.19500
C1050       C  0.22513260  0.17874392  0.35475291     0.20800
C1051       C  0.22649349  0.18827333  0.33096111    -0.32500
C1052       C  0.24474846  0.20405954  0.32466867     0.01500
C1053       C  0.26062644  0.21196866  0.34281593    -0.23800
C1054       C  0.26122256  0.16687450  0.43541806    -0.28400
C1055       C  0.24557072  0.14788255  0.43978813     0.07100
C1056       C  0.22770405  0.14272058  0.42268079    -0.27100
H1057       H  0.29001361  0.20245350  0.42103805     0.11900
H1058       H  0.28972757  0.22219129  0.38062492     0.13000
H1059       H  0.19567429  0.13605711  0.38703631     0.12100
H1060       H  0.19501690  0.15614580  0.34694668     0.11300
H1061       H  0.21456770  0.18197776  0.31672196     0.16700
H1062       H  0.27496391  0.22385155  0.33768461     0.12600
H1063       H  0.27494386  0.17091889  0.44874643     0.15500
H1064       H  0.21537580  0.12832615  0.42629436     0.15200
C1065       C  0.22513329  0.07794201  0.76860660    -0.17600
C1066       C  0.23583224  0.10032251  0.76940685    -0.19800
C1067       C  0.22217657  0.12091704  0.76648651     0.20800
C1068       C  0.19734746  0.11905209  0.76390073    -0.02700
C1069       C  0.18658481  0.09646146  0.76286368    -0.05800
C1070       C  0.20062536  0.07581451  0.76475857     0.21100
C1071       C  0.16195224  0.09454624  0.75882376     0.19300
C1072       C  0.14814511  0.11518564  0.75709177    -0.17300
C1073       C  0.15881932  0.13758484  0.75805984    -0.19500
C1074       C  0.18346196  0.13968583  0.76079278     0.20800
C1075       C  0.19465613  0.16183703  0.75858769    -0.32500
C1076       C  0.21948133  0.16341770  0.75907552     0.01500
C1077       C  0.23306581  0.14316304  0.76422596    -0.23800
C1078       C  0.19002774  0.05343223  0.76206932    -0.28400
C1079       C  0.16565715  0.05144598  0.75710317     0.07100
C1080       C  0.15167275  0.07205784  0.75589828    -0.27100
H1081       H  0.23612960  0.06228103  0.77027855     0.11900
H1082       H  0.25490181  0.10149333  0.77151664     0.13000
H1083       H  0.12916995  0.11400257  0.75427214     0.12100
H1084       H  0.14789788  0.15323938  0.75581031     0.11300
H1085       H  0.18429023  0.17748926  0.75425109     0.16700
H1086       H  0.25225294  0.14449717  0.76430469     0.12600
H1087       H  0.20083017  0.03758488  0.76330366     0.15500
H1088       H  0.13278614  0.07060242  0.75254246     0.15200
C1089       C  0.25656647  0.26539095  0.87878528    -0.17600
C1090       C  0.25744697  0.27505467  0.90250223    -0.19800
C1091       C  0.24436501  0.29548174  0.90819590     0.20800
C1092       C  0.22928622  0.30553929  0.89021438    -0.02700
C1093       C  0.22812852  0.29559078  0.86642830    -0.05800
C1094       C  0.24239759  0.27586084  0.86049663     0.21100
C1095       C  0.21376638  0.30625810  0.84819281     0.19300
C1096       C  0.19985453  0.32601281  0.85419249    -0.17300
C1097       C  0.20114356  0.33598189  0.87771056    -0.19500
C1098       C  0.21627512  0.32625684  0.89558512     0.20800
C1099       C  0.21938213  0.33745964  0.91835115    -0.32500
C1100       C  0.23509529  0.32808673  0.93591232     0.01500
C1101       C  0.24688420  0.30664983  0.93113559    -0.23800
C1102       C  0.24332067  0.26790507  0.83605669    -0.28400
C1103       C  0.23008254  0.27937954  0.81761218     0.07100
C1104       C  0.21469245  0.29792063  0.82392928    -0.27100
H1105       H  0.26748756  0.25013088  0.87455349     0.11900
H1106       H  0.26897746  0.26703256  0.91613552     0.13000
H1107       H  0.18862340  0.33427382  0.84043279     0.12100
H1108       H  0.19084181  0.35172235  0.88168535     0.11300
H1109       H  0.20992473  0.35376202  0.92223806     0.16700
H1110       H  0.25886765  0.29931667  0.94478361     0.12600
H1111       H  0.25546278  0.25381496  0.83104282     0.15500
H1112       H  0.20463905  0.30680424  0.80958372     0.15200
C1113       C  0.28678986  0.14468848  0.65224100    -0.17600
C1114       C  0.28593512  0.13338002  0.62934413    -0.19800
C1115       C  0.27141143  0.14225688  0.61047050     0.20800
C1116       C  0.25808212  0.16308826  0.61447797    -0.02700
C1117       C  0.25888951  0.17445274  0.63758711    -0.05800
C1118       C  0.27309199  0.16500614  0.65662825     0.21100
C1119       C  0.24470429  0.19464637  0.64195696     0.19300
C1120       C  0.23052829  0.20377449  0.62293336    -0.17300
C1121       C  0.22996003  0.19268483  0.59991834    -0.19500
C1122       C  0.24341626  0.17218852  0.59563996     0.20800
C1123       C  0.24212161  0.16039301  0.57300311    -0.32500
C1124       C  0.25496801  0.13940326  0.56908222     0.01500
C1125       C  0.26967253  0.13047025  0.58781081    -0.23800
C1126       C  0.27229045  0.17523105  0.68010879    -0.28400
C1127       C  0.25706001  0.19437992  0.68494386     0.07100
C1128       C  0.24390572  0.20450392  0.66564661    -0.27100
H1129       H  0.29775398  0.13722332  0.66670861     0.11900
H1130       H  0.29634890  0.11748300  0.62652487     0.13000
H1131       H  0.21954152  0.21924304  0.62599492     0.12100
H1132       H  0.21864548  0.19988310  0.58560561     0.11300
H1133       H  0.23076056  0.16732664  0.55857049     0.16700
H1134       H  0.27974860  0.11438427  0.58474067     0.12600
H1135       H  0.28214406  0.16723866  0.69515617     0.15500
H1136       H  0.23176032  0.21891488  0.66953455     0.15200
C1137       C  0.34099990  0.51204436  0.49100236    -0.17600
C1138       C  0.36309163  0.50088769  0.49003460    -0.19800
C1139       C  0.38402694  0.51421111  0.49200888     0.20800
C1140       C  0.38276370  0.53909948  0.49442774    -0.02700
C1141       C  0.36043668  0.55036300  0.49545852    -0.05800
C1142       C  0.33947663  0.53671481  0.49392792     0.21100
C1143       C  0.35908683  0.57516546  0.49861750     0.19300
C1144       C  0.38006496  0.58851664  0.50027008    -0.17300
C1145       C  0.40220302  0.57732549  0.49946410    -0.19500
C1146       C  0.40375458  0.55259961  0.49687577     0.20800
C1147       C  0.42575511  0.54096836  0.49819299    -0.32500
C1148       C  0.42687065  0.51608607  0.49722775     0.01500
C1149       C  0.40609860  0.50292403  0.49314930    -0.23800
C1150       C  0.31735467  0.54792006  0.49555015    -0.28400
C1151       C  0.31584912  0.57259281  0.49879963     0.07100
C1152       C  0.33679582  0.58611878  0.50030116    -0.27100
H1153       H  0.32508388  0.50132619  0.48977445     0.11900
H1154       H  0.36379251  0.48175946  0.48825179     0.13000
H1155       H  0.37934735  0.60758754  0.50258956     0.12100
H1156       H  0.41810709  0.58796926  0.50135427     0.11300
H1157       H  0.44174826  0.55103746  0.50189250     0.16700
H1158       H  0.40700164  0.48370417  0.49291028     0.12600
H1159       H  0.30128681  0.53740600  0.49436227     0.15500
H1160       H  0.33575172  0.60517994  0.50266235     0.15200
C1161       C  0.53880557  0.47805683  0.34545625    -0.17600
C1162       C  0.52803359  0.47795315  0.36870719    -0.19800
C1163       C  0.53795373  0.49088280  0.38820759     0.20800
C1164       C  0.55828357  0.50500003  0.38393751    -0.02700
C1165       C  0.56934995  0.50482672  0.36057965    -0.05800
C1166       C  0.55979785  0.49090416  0.34141795     0.21100
C1167       C  0.59063214  0.51757690  0.35680478     0.19300
C1168       C  0.59981045  0.53157348  0.37592049    -0.17300
C1169       C  0.58875420  0.53187402  0.39903276    -0.19500
C1170       C  0.56842347  0.51809655  0.40340269     0.20800
C1171       C  0.55904839  0.51586414  0.42723891    -0.32500
C1172       C  0.54000237  0.50038219  0.43190098     0.01500
C1173       C  0.52891457  0.48868098  0.41222532    -0.23800
C1174       C  0.57194826  0.48921938  0.31892232    -0.28400
C1175       C  0.59386160  0.50069332  0.31558175     0.07100
C1176       C  0.60284196  0.51530431  0.33435548    -0.27100
H1177       H  0.53117457  0.46741889  0.33086987     0.11900
H1178       H  0.51235011  0.46716473  0.37163414     0.13000
H1179       H  0.61595289  0.54170810  0.37323317     0.12100
H1180       H  0.59662580  0.54216912  0.41375442     0.11300
H1181       H  0.56766312  0.52470135  0.44254963     0.16700
H1182       H  0.51443085  0.47649568  0.41594937     0.12600
H1183       H  0.56489106  0.47807286  0.30441477     0.15500
H1184       H  0.61955243  0.52449598  0.33167139     0.15200
C1185       C  0.27014077  0.39681722  0.73277270    -0.17600
C1186       C  0.25784795  0.37521982  0.73196590    -0.19800
C1187       C  0.26959529  0.35378048  0.73687859     0.20800
C1188       C  0.29413289  0.35406072  0.74200205    -0.02700
C1189       C  0.30644842  0.37589649  0.74322941    -0.05800
C1190       C  0.29435058  0.39739096  0.73876306     0.21100
C1191       C  0.33069730  0.37624079  0.74960313     0.19300
C1192       C  0.34255520  0.35476512  0.75403342    -0.17300
C1193       C  0.33040562  0.33314707  0.75268153    -0.19500
C1194       C  0.30615081  0.33262249  0.74702036     0.20800
C1195       C  0.29342163  0.31122608  0.74785341    -0.32500
C1196       C  0.26875584  0.31109254  0.74451906     0.01500
C1197       C  0.25702863  0.33226427  0.73826349    -0.23800
C1198       C  0.30657567  0.41907384  0.74073380    -0.28400
C1199       C  0.33068243  0.41958383  0.74741410     0.07100
C1200       C  0.34260583  0.39804525  0.75173268    -0.27100
H1201       H  0.26058860  0.41312749  0.72920278     0.11900
H1202       H  0.23903199  0.37533306  0.72795755     0.13000
H1203       H  0.36118195  0.35470359  0.75887353     0.12100
H1204       H  0.33986709  0.31686274  0.75665596     0.11300
H1205       H  0.30230369  0.29497646  0.75327694     0.16700
H1206       H  0.23790510  0.33218369  0.73622555     0.12600
H1207       H  0.29727023  0.43556096  0.73728194     0.15500
H1208       H  0.36120316  0.39823680  0.75673472     0.15200
C1209       C  0.35660691  0.61471549  0.74441824    -0.17600
C1210       C  0.34627948  0.63735114  0.74440155    -0.19800
C1211       C  0.32190388  0.64012099  0.74891472     0.20800
C1212       C  0.30796430  0.61985772  0.75411871    -0.02700
C1213       C  0.31836253  0.59701666  0.75401970    -0.05800
C1214       C  0.34274972  0.59439040  0.74887107     0.21100
C1215       C  0.30418586  0.57677203  0.75844994     0.19300
C1216       C  0.27990273  0.57950962  0.76324747    -0.17300
C1217       C  0.26960272  0.60205213  0.76319360    -0.19500
C1218       C  0.28340954  0.62228557  0.75845555     0.20800
C1219       C  0.27282820  0.64472129  0.75671061    -0.32500
C1220       C  0.28630439  0.66479457  0.75033933     0.01500
C1221       C  0.31095502  0.66253483  0.74704629    -0.23800
C1222       C  0.35269613  0.57148687  0.74788563    -0.28400
C1223       C  0.33855054  0.55120187  0.75206897     0.07100
C1224       C  0.31438215  0.55409126  0.75760213    -0.27100
H1225       H  0.37537926  0.61308150  0.74054427     0.11900
H1226       H  0.35729100  0.65265996  0.74040014     0.13000
H1227       H  0.26877971  0.56415912  0.76667822     0.12100
H1228       H  0.25071344  0.60362351  0.76646279     0.11300
H1229       H  0.25375154  0.64638353  0.75855969     0.16700
H1230       H  0.32124797  0.67789810  0.74144434     0.12600
H1231       H  0.37139107  0.56944862  0.74377848     0.15500
H1232       H  0.30337658  0.53861767  0.76091545     0.15200
C1233       C  0.41060939  0.44448616  0.60220207    -0.17600
C1234       C  0.39929092  0.44536073  0.62513993    -0.19800
C1235       C  0.40787073  0.46032008  0.64374581     0.20800
C1236       C  0.42864726  0.47377267  0.63959884    -0.02700
C1237       C  0.44003997  0.47292849  0.61644451    -0.05800
C1238       C  0.43064995  0.45858844  0.59752206     0.21100
C1239       C  0.46005470  0.48738817  0.61183003     0.19300
C1240       C  0.46912662  0.50167753  0.63074752    -0.17300
C1241       C  0.45799717  0.50229715  0.65380679    -0.19500
C1242       C  0.43751935  0.48876058  0.65825036     0.20800
C1243       C  0.42540527  0.49042375  0.68077177    -0.32500
C1244       C  0.40426469  0.47773099  0.68463091     0.01500
C1245       C  0.39572074  0.46252520  0.66618640    -0.23800
C1246       C  0.44050481  0.45980241  0.57383028    -0.28400
C1247       C  0.45933017  0.47542917  0.56876027     0.07100
C1248       C  0.46965267  0.48845944  0.58797047    -0.27100
H1249       H  0.40326543  0.43331941  0.58787914     0.11900
H1250       H  0.38350024  0.43475474  0.62813040     0.13000
H1251       H  0.48449773  0.51283352  0.62751922     0.12100
H1252       H  0.46506612  0.51381495  0.66796963     0.11300
H1253       H  0.43204405  0.50210806  0.69503377     0.16700
H1254       H  0.37957868  0.45246781  0.66929046     0.12600
H1255       H  0.43238384  0.45005359  0.55882935     0.15500
H1256       H  0.48388339  0.50083223  0.58386801     0.15200
C1257       C  0.39877993  0.38321384  0.98444911    -0.17600
C1258       C  0.37553124  0.37448274  0.98369563    -0.19800
C1259       C  0.35658997  0.38817688  0.99255858     0.20800
C1260       C  0.36120795  0.41071094  0.00276996    -0.02700
C1261       C  0.38476027  0.41945471  0.00374394    -0.05800
C1262       C  0.40358066  0.40574344  0.99423634     0.21100
C1263       C  0.38933539  0.44227914  0.01329868     0.19300
C1264       C  0.37038766  0.45588790  0.02231926    -0.17300
C1265       C  0.34710192  0.44718616  0.02146794    -0.19500
C1266       C  0.34226218  0.42472734  0.01149744     0.20800
C1267       C  0.31883492  0.41614940  0.00987879    -0.32500
C1268       C  0.31405909  0.39371994  0.99960812     0.01500
C1269       C  0.33312271  0.37982220  0.99112701    -0.23800
C1270       C  0.42661956  0.41532105  0.99339228    -0.28400
C1271       C  0.43113136  0.43849041  0.00175816     0.07100
C1272       C  0.41251792  0.45159690  0.01235207    -0.27100
H1273       H  0.41298476  0.37246955  0.97700026     0.11900
H1274       H  0.37232538  0.35713051  0.97582845     0.13000
H1275       H  0.37352503  0.47346682  0.02966239     0.12100
H1276       H  0.33281784  0.45818770  0.02831472     0.11300
H1277       H  0.30433032  0.42691718  0.01665197     0.16700
H1278       H  0.32970218  0.36246082  0.98335164     0.12600
H1279       H  0.44071992  0.40551396  0.98443787     0.15500
H1280       H  0.41574126  0.46975413  0.01799438     0.15200
C1281       C  0.39410584  0.50454393  0.88094232    -0.17600
C1282       C  0.40593597  0.50522476  0.90353018    -0.19800
C1283       C  0.42894010  0.49604597  0.90566939     0.20800
C1284       C  0.44048572  0.48672771  0.88476353    -0.02700
C1285       C  0.42868363  0.48642124  0.86184230    -0.05800
C1286       C  0.40522790  0.49497005  0.86009203     0.21100
C1287       C  0.44004188  0.47689004  0.84090264     0.19300
C1288       C  0.46322959  0.46807556  0.84303285    -0.17300
C1289       C  0.47469406  0.46778626  0.86594184    -0.19500
C1290       C  0.46333122  0.47669337  0.88701237     0.20800
C1291       C  0.47364506  0.47437751  0.91050984    -0.32500
C1292       C  0.46153884  0.48252196  0.93151012     0.01500
C1293       C  0.43991111  0.49458893  0.92869628    -0.23800
C1294       C  0.39313711  0.49348248  0.83763196    -0.28400
C1295       C  0.40423082  0.48388142  0.81673926     0.07100
C1296       C  0.42781162  0.47591231  0.81837242    -0.27100
H1297       H  0.37613916  0.51123877  0.87985255     0.11900
H1298       H  0.39682434  0.51229516  0.91949972     0.13000
H1299       H  0.47225734  0.46081679  0.82711477     0.12100
H1300       H  0.49227136  0.46015538  0.86726901     0.11300
H1301       H  0.49014159  0.46474681  0.91267292     0.16700
H1302       H  0.43053084  0.50072618  0.94494910     0.12600
H1303       H  0.37505700  0.49987947  0.83640545     0.15500
H1304       H  0.43647629  0.46859064  0.80225310     0.15200
C1305       C  0.52769682  0.49041879  0.13213905    -0.17600
C1306       C  0.53872133  0.49332836  0.15506811    -0.19800
C1307       C  0.56125451  0.48364863  0.15946786     0.20800
C1308       C  0.57234201  0.47006056  0.14093218    -0.02700
C1309       C  0.56102241  0.46674042  0.11798740    -0.05800
C1310       C  0.53888210  0.47753592  0.11332327     0.21100
C1311       C  0.57248260  0.45372701  0.09926374     0.19300
C1312       C  0.59472483  0.44353493  0.10383170    -0.17300
C1313       C  0.60600623  0.44698088  0.12647043    -0.19500
C1314       C  0.59514852  0.46053579  0.14495142     0.20800
C1315       C  0.60694690  0.46516436  0.16714719    -0.32500
C1316       C  0.59620499  0.47898774  0.18554578     0.01500
C1317       C  0.57316552  0.48781285  0.18179307    -0.23800
C1318       C  0.52921700  0.47667157  0.08945428    -0.28400
C1319       C  0.54146390  0.46512656  0.07037450     0.07100
C1320       C  0.56236074  0.45260894  0.07574329    -0.27100
H1321       H  0.51067215  0.49875302  0.12892147     0.11900
H1322       H  0.52990642  0.50370595  0.16912819     0.13000
H1323       H  0.60374089  0.43352698  0.08960957     0.12100
H1324       H  0.62344582  0.43943680  0.12934263     0.11300
H1325       H  0.62457156  0.45804869  0.17007122     0.16700
H1326       H  0.56474604  0.49835815  0.19599680     0.12600
H1327       H  0.51332472  0.48667958  0.08520112     0.15500
H1328       H  0.57192216  0.44399551  0.06089667     0.15200
C1329       C  0.12165490  0.59053269  0.49189857    -0.17600
C1330       C  0.09912683  0.58024067  0.49351257    -0.19800
C1331       C  0.09657708  0.55632291  0.50029463     0.20800
C1332       C  0.11686098  0.54286201  0.50638847    -0.02700
C1333       C  0.13958164  0.55320232  0.50461227    -0.05800
C1334       C  0.14197681  0.57705354  0.49700556     0.21100
C1335       C  0.15991469  0.53946533  0.50973115     0.19300
C1336       C  0.15732904  0.51571592  0.51710903    -0.17300
C1337       C  0.13482013  0.50541406  0.51870481    -0.19500
C1338       C  0.11455034  0.51871694  0.51299965     0.20800
C1339       C  0.09222887  0.50787243  0.51204498    -0.32500
C1340       C  0.07238854  0.52075126  0.50413832     0.01500
C1341       C  0.07436630  0.54515584  0.49936103    -0.23800
C1342       C  0.16465347  0.58694161  0.49442194    -0.28400
C1343       C  0.18497166  0.57334739  0.49945783     0.07100
C1344       C  0.18247685  0.54964728  0.50716100    -0.27100
H1345       H  0.12321089  0.60891500  0.48619883     0.11900
H1346       H  0.08374215  0.59081821  0.48882550     0.13000
H1347       H  0.17275137  0.50497459  0.52120910     0.12100
H1348       H  0.13330820  0.48686509  0.52379861     0.11300
H1349       H  0.09060606  0.48892610  0.51520533     0.16700
H1350       H  0.05902997  0.55486139  0.49276951     0.12600
H1351       H  0.16647317  0.60529665  0.48866849     0.15500
H1352       H  0.19808749  0.53914294  0.51121045     0.15200
C1353       C  0.12866656  0.46411100  0.97504028    -0.17600
C1354       C  0.15110616  0.45348131  0.97559284    -0.19800
C1355       C  0.15450029  0.43162337  0.98759700     0.20800
C1356       C  0.13491424  0.42011866  0.99866266    -0.02700
C1357       C  0.11222781  0.43079576  0.99800568    -0.05800
C1358       C  0.10916022  0.45306118  0.98641405     0.21100
C1359       C  0.09283956  0.41962255  0.00979128     0.19300
C1360       C  0.09613640  0.39763345  0.02151632    -0.17300
C1361       C  0.11853135  0.38698920  0.02199477    -0.19500
C1362       C  0.13807612  0.39820050  0.01087703     0.20800
C1363       C  0.16074722  0.38798244  0.01202015    -0.32500
C1364       C  0.18045023  0.39939058  0.00125346     0.01500
C1365       C  0.17713566  0.42119130  0.98895574    -0.23800
C1366       C  0.08698998  0.46442841  0.98757196    -0.28400
C1367       C  0.06797026  0.45387307  0.00031617     0.07100
C1368       C  0.07083503  0.43120794  0.01078584    -0.27100
H1369       H  0.12666077  0.48120102  0.96607652     0.11900
H1370       H  0.16589691  0.46254193  0.96691708     0.13000
H1371       H  0.08145818  0.38883391  0.03068514     0.12100
H1372       H  0.12063631  0.37013054  0.03139613     0.11300
H1373       H  0.16305541  0.37111793  0.02137946     0.16700
H1374       H  0.19215014  0.43001776  0.98041664     0.12600
H1375       H  0.08496731  0.48219571  0.98014413     0.15500
H1376       H  0.05635650  0.42339601  0.02121677     0.15200
C1377       C  0.16503846  0.33766103  0.25217537    -0.17600
C1378       C  0.15327735  0.35951238  0.25112885    -0.19800
C1379       C  0.16608711  0.38087379  0.25211600     0.20800
C1380       C  0.19095827  0.38020954  0.25476713    -0.02700
C1381       C  0.20283153  0.35814511  0.25588114    -0.05800
C1382       C  0.18982823  0.33675903  0.25427021     0.21100
C1383       C  0.22778231  0.35752148  0.25764194     0.19300
C1384       C  0.24056464  0.37886786  0.25893423    -0.17300
C1385       C  0.22879721  0.40069543  0.25805143    -0.19500
C1386       C  0.20403579  0.40157597  0.25572476     0.20800
C1387       C  0.19217843  0.42342936  0.25401514    -0.32500
C1388       C  0.16742947  0.42423388  0.25101349     0.01500
C1389       C  0.15450548  0.40285980  0.25018878    -0.23800
C1390       C  0.20193822  0.31496220  0.25345788    -0.28400
C1391       C  0.22684697  0.31436541  0.25395755     0.07100
C1392       C  0.23958998  0.33563927  0.25676049    -0.27100
H1393       H  0.15476445  0.32145471  0.25089011     0.11900
H1394       H  0.13416514  0.35969894  0.24919144     0.13000
H1395       H  0.25973341  0.37869135  0.26023159     0.12100
H1396       H  0.23911026  0.41690625  0.25882348     0.11300
H1397       H  0.20224532  0.43981018  0.25474667     0.16700
H1398       H  0.13540236  0.40333137  0.24811032     0.12600
H1399       H  0.19214784  0.29862837  0.25063329     0.15500
H1400       H  0.25881210  0.33519519  0.25655745     0.15200
C1401       C  0.14983821  0.61828672  0.25991018    -0.17600
C1402       C  0.16102754  0.64049037  0.25962014    -0.19800
C1403       C  0.18506347  0.64250239  0.25317927     0.20800
C1404       C  0.19781589  0.62197930  0.24642106    -0.02700
C1405       C  0.18652744  0.59956431  0.24675494    -0.05800
C1406       C  0.16248721  0.59768507  0.25377907     0.21100
C1407       C  0.19946300  0.57899060  0.24062282     0.19300
C1408       C  0.22342012  0.58102294  0.23389906    -0.17300
C1409       C  0.23465104  0.60317464  0.23378495    -0.19500
C1410       C  0.22209250  0.62370719  0.24025268     0.20800
C1411       C  0.23365529  0.64571511  0.24188937    -0.32500
C1412       C  0.22128480  0.66596695  0.24962936     0.01500
C1413       C  0.19688448  0.66442362  0.25460859    -0.23800
C1414       C  0.15162415  0.57522736  0.25482304    -0.28400
C1415       C  0.16446861  0.55461878  0.24885952     0.07100
C1416       C  0.18833561  0.55670827  0.24161892    -0.27100
H1417       H  0.13135591  0.61719273  0.26526120     0.11900
H1418       H  0.15098005  0.65604611  0.26487609     0.13000
H1419       H  0.23358506  0.56541405  0.22908977     0.12100
H1420       H  0.25329028  0.60419150  0.22901819     0.11300
H1421       H  0.25260665  0.64686656  0.23868050     0.16700
H1422       H  0.18754925  0.67996118  0.26121680     0.12600
H1423       H  0.13318199  0.57379428  0.26027905     0.15500
H1424       H  0.19833339  0.54094661  0.23692122     0.15200
C1425       C  0.09846240  0.52640003  0.12453528    -0.17600
C1426       C  0.08657587  0.52829677  0.10201874    -0.19800
C1427       C  0.06627815  0.51459338  0.09746905     0.20800
C1428       C  0.05736280  0.49941255  0.11608146    -0.02700
C1429       C  0.06935434  0.49752248  0.13883636    -0.05800
C1430       C  0.09020768  0.51081381  0.14287119     0.21100
C1431       C  0.06091869  0.48180974  0.15721648     0.19300
C1432       C  0.04038966  0.46837575  0.15277045    -0.17300
C1433       C  0.02867752  0.47001184  0.13007345    -0.19500
C1434       C  0.03718274  0.48523866  0.11151056     0.20800
C1435       C  0.02690167  0.48536112  0.08793857    -0.32500
C1436       C  0.03678923  0.49920244  0.06894325     0.01500
C1437       C  0.05575634  0.51455424  0.07408278    -0.23800
C1438       C  0.10267720  0.50802832  0.16500192    -0.28400
C1439       C  0.09446323  0.49238511  0.18334981     0.07100
C1440       C  0.07340769  0.47952774  0.17950765    -0.27100
H1441       H  0.11437253  0.53681701  0.12744005     0.11900
H1442       H  0.09363004  0.54001353  0.08791068     0.13000
H1443       H  0.03366094  0.45624837  0.16666569     0.12100
H1444       H  0.01324129  0.45897859  0.12684971     0.11300
H1445       H  0.01261807  0.47312609  0.08372553     0.16700
H1446       H  0.06363674  0.52480465  0.05920759     0.12600
H1447       H  0.11876564  0.51816443  0.16801012     0.15500
H1448       H  0.06700902  0.46746744  0.19365281     0.15200
C1449       C  0.10499190  0.45383444  0.37650705    -0.17600
C1450       C  0.09401186  0.45271582  0.39959688    -0.19800
C1451       C  0.07270125  0.46484431  0.40380836     0.20800
C1452       C  0.06184175  0.47751057  0.38438281    -0.02700
C1453       C  0.07289522  0.47859748  0.36108445    -0.05800
C1454       C  0.09479327  0.46706834  0.35730913     0.21100
C1455       C  0.06248167  0.49192776  0.34186456     0.19300
C1456       C  0.04085013  0.50354827  0.34593264    -0.17300
C1457       C  0.03002675  0.50270711  0.36914016    -0.19500
C1458       C  0.04057563  0.49008959  0.38856975     0.20800
C1459       C  0.03108364  0.49103666  0.41244710    -0.32500
C1460       C  0.04265828  0.47961202  0.43202665     0.01500
C1461       C  0.06285287  0.46576638  0.42746010    -0.23800
C1462       C  0.10639576  0.46945796  0.33459980    -0.28400
C1463       C  0.09633892  0.48308069  0.31557113     0.07100
C1464       C  0.07418990  0.49390704  0.31912910    -0.27100
H1465       H  0.12171735  0.44476674  0.37381882     0.11900
H1466       H  0.10252034  0.44290809  0.41434909     0.13000
H1467       H  0.03259602  0.51376453  0.33133401     0.12100
H1468       H  0.01368347  0.51239623  0.37204914     0.11300
H1469       H  0.01576279  0.50206957  0.41617968     0.16700
H1470       H  0.07188109  0.45726094  0.44276724     0.12600
H1471       H  0.12334985  0.46083257  0.33178551     0.15500
H1472       H  0.06635072  0.50432731  0.30441732     0.15200
C1473       C  0.96198040  0.49637386  0.84209901    -0.17600
C1474       C  0.97299134  0.49590106  0.86523779    -0.19800
C1475       C  0.96146742  0.48567953  0.88564862     0.20800
C1476       C  0.93901460  0.47497939  0.88247084    -0.02700
C1477       C  0.92774920  0.47582656  0.85927634    -0.05800
C1478       C  0.93914687  0.48686761  0.83906306     0.21100
C1479       C  0.90467322  0.46646922  0.85660230     0.19300
C1480       C  0.89345879  0.45550103  0.87673463    -0.17300
C1481       C  0.90467381  0.45451397  0.89965015    -0.19500
C1482       C  0.92721347  0.46459089  0.90278392     0.20800
C1483       C  0.93737225  0.46594622  0.92623318    -0.32500
C1484       C  0.95862526  0.47846934  0.92989917     0.01500
C1485       C  0.97114882  0.48741313  0.90945361    -0.23800
C1486       C  0.92720014  0.48881335  0.81642934    -0.28400
C1487       C  0.90387379  0.48027204  0.81403169     0.07100
C1488       C  0.89291059  0.46880738  0.83405037    -0.27100
H1489       H  0.97103841  0.50478626  0.82675113     0.11900
H1490       H  0.99027011  0.50408890  0.86730742     0.13000
H1491       H  0.87579160  0.44814115  0.87489479     0.12100
H1492       H  0.89540153  0.44653068  0.91511493     0.11300
H1493       H  0.92766035  0.45925415  0.94209080     0.16700
H1494       H  0.98736685  0.49737596  0.91234299     0.12600
H1495       H  0.93578192  0.49749269  0.80092846     0.15500
H1496       H  0.87506415  0.46187249  0.83215824     0.15200
C1497       C  0.96853047  0.46136364  0.63003962    -0.17600
C1498       C  0.95725285  0.46073860  0.65301745    -0.19800
C1499       C  0.93898650  0.47678698  0.65841040     0.20800
C1500       C  0.93273256  0.49432685  0.64093676    -0.02700
C1501       C  0.94429700  0.49515636  0.61792538    -0.05800
C1502       C  0.96183967  0.47817399  0.61222887     0.21100
C1503       C  0.93728943  0.51206917  0.60008852     0.19300
C1504       C  0.91967425  0.52868582  0.60580463    -0.17300
C1505       C  0.90814881  0.52780335  0.62859613    -0.19500
C1506       C  0.91414413  0.51033499  0.64597782     0.20800
C1507       C  0.90130674  0.50805591  0.66793240    -0.32500
C1508       C  0.90697816  0.49018934  0.68500759     0.01500
C1509       C  0.92625036  0.47505861  0.68055525    -0.23800
C1510       C  0.97118214  0.47735424  0.58831310    -0.28400
C1511       C  0.96296081  0.49312208  0.57020989     0.07100
C1512       C  0.94682702  0.51101032  0.57631940    -0.27100
H1513       H  0.98201882  0.44827338  0.62594861     0.11900
H1514       H  0.96231433  0.44725186  0.66627801     0.13000
H1515       H  0.91423554  0.54183286  0.59233101     0.12100
H1516       H  0.89407828  0.54035362  0.63235221     0.11300
H1517       H  0.88669138  0.52001374  0.67162190     0.16700
H1518       H  0.93070628  0.46137936  0.69386378     0.12600
H1519       H  0.98344840  0.46338782  0.58323257     0.15500
H1520       H  0.94042772  0.52290381  0.56204265     0.15200
C1521       C  0.65859303  0.01195945  0.01736222    -0.17600
C1522       C  0.63632561  0.00092384  0.01623484    -0.19800
C1523       C  0.61636824  0.01352095  0.00799291     0.20800
C1524       C  0.61877379  0.03768043  0.00146294    -0.02700
C1525       C  0.64127410  0.04876551  0.00244883    -0.05800
C1526       C  0.66135411  0.03577984  0.01016615     0.21100
C1527       C  0.64375183  0.07267061  0.99508140     0.19300
C1528       C  0.62372905  0.08544253  0.98737681    -0.17300
C1529       C  0.60149687  0.07447364  0.98634158    -0.19500
C1530       C  0.59887272  0.05055266  0.99305282     0.20800
C1531       C  0.57694891  0.03901995  0.99044868    -0.32500
C1532       C  0.57470597  0.01476036  0.99588699     0.01500
C1533       C  0.59431141  0.00217871  0.00509466    -0.23800
C1534       C  0.68384214  0.04673193  0.01010316    -0.28400
C1535       C  0.68647597  0.07045710  0.00226379     0.07100
C1536       C  0.66624906  0.08331271  0.99507782    -0.27100
H1537       H  0.67374726  0.00172343  0.02345771     0.11900
H1538       H  0.63479959  0.98239473  0.02139985     0.13000
H1539       H  0.62533192  0.10384079  0.98175418     0.12100
H1540       H  0.58641468  0.08460382  0.97985831     0.11300
H1541       H  0.56192432  0.04852359  0.98283802     0.16700
H1542       H  0.59262530  0.98333466  0.00880054     0.12600
H1543       H  0.69928938  0.03673081  0.01584067     0.15500
H1544       H  0.66802789  0.10164061  0.98922552     0.15200
C1545       C  0.88068348  0.08659274  0.01798890    -0.17600
C1546       C  0.90299246  0.07571921  0.01784314    -0.19800
C1547       C  0.90565989  0.05250701  0.00895857     0.20800
C1548       C  0.88576780  0.04039364  0.99942268    -0.02700
C1549       C  0.86325201  0.05138875  0.99954271    -0.05800
C1550       C  0.86064337  0.07445691  0.00921867     0.21100
C1551       C  0.84326249  0.03903566  0.99059393     0.19300
C1552       C  0.84603651  0.01604602  0.98115975    -0.17300
C1553       C  0.86826763  0.00505924  0.98129667    -0.19500
C1554       C  0.88816711  0.01693221  0.99069614     0.20800
C1555       C  0.91012546  0.00536490  0.99266684    -0.32500
C1556       C  0.92967505  0.01700367  0.00312782     0.01500
C1557       C  0.92754847  0.04075074  0.01059906    -0.23800
C1558       C  0.83800784  0.08481955  0.01028614    -0.28400
C1559       C  0.81793290  0.07247132  0.00168963     0.07100
C1560       C  0.82079182  0.04969732  0.99160677    -0.27100
H1561       H  0.87904102  0.10436609  0.02533415     0.11900
H1562       H  0.91807881  0.08528939  0.02518176     0.13000
H1563       H  0.83090128  0.00636270  0.97410376     0.12100
H1564       H  0.86980878  0.98708781  0.97445706     0.11300
H1565       H  0.91172074  0.98689250  0.98740673     0.16700
H1566       H  0.94255433  0.04948818  0.01916815     0.12600
H1567       H  0.83601568  0.10248002  0.01785617     0.15500
H1568       H  0.80546730  0.04013946  0.98478115     0.15200
C1569       C  0.63543850  0.47527977  0.51426556    -0.17600
C1570       C  0.65793429  0.46487031  0.51345474    -0.19800
C1571       C  0.66043463  0.44061305  0.50831229     0.20800
C1572       C  0.63998653  0.42660186  0.50447736    -0.02700
C1573       C  0.61724754  0.43704886  0.50561090    -0.05800
C1574       C  0.61503086  0.46158575  0.51013028     0.21100
C1575       C  0.59682462  0.42315816  0.50115898     0.19300
C1576       C  0.59931431  0.39884308  0.49630657    -0.17300
C1577       C  0.62183564  0.38850505  0.49516211    -0.19500
C1578       C  0.64226699  0.40228336  0.49891772     0.20800
C1579       C  0.66492383  0.39219556  0.49703511    -0.32500
C1580       C  0.68539411  0.40598639  0.50094912     0.01500
C1581       C  0.68300086  0.43017460  0.50670938    -0.23800
C1582       C  0.59260698  0.47225064  0.50894584    -0.28400
C1583       C  0.57242557  0.45877766  0.50307542     0.07100
C1584       C  0.57447314  0.43411742  0.50010641    -0.27100
H1585       H  0.63402826  0.49415112  0.51770207     0.11900
H1586       H  0.67341297  0.47588844  0.51646461     0.13000
H1587       H  0.58386047  0.38791343  0.49284014     0.12100
H1588       H  0.62328677  0.36977562  0.49100357     0.11300
H1589       H  0.66660853  0.37349411  0.49278458     0.16700
H1590       H  0.69868831  0.44088912  0.50980368     0.12600
H1591       H  0.59103222  0.49134864  0.51065713     0.15500
H1592       H  0.55897556  0.42386006  0.49497539     0.15200
C1593       C  0.86924262  0.47056158  0.47790741    -0.17600
C1594       C  0.84655593  0.46043077  0.47821504    -0.19800
C1595       C  0.84316805  0.43710225  0.48670231     0.20800
C1596       C  0.86298225  0.42358042  0.49415190    -0.02700
C1597       C  0.88590997  0.43369320  0.49354173    -0.05800
C1598       C  0.88897335  0.45746896  0.48586368     0.21100
C1599       C  0.90558061  0.42038902  0.50179360     0.19300
C1600       C  0.90229129  0.39691333  0.50978744    -0.17300
C1601       C  0.87959853  0.38690827  0.51038633    -0.19500
C1602       C  0.85981606  0.40022141  0.50301539     0.20800
C1603       C  0.83688987  0.39074647  0.50490092    -0.32500
C1604       C  0.81700127  0.40422530  0.49797419     0.01500
C1605       C  0.82030128  0.42724949  0.48844588    -0.23800
C1606       C  0.91142232  0.46812876  0.48774699    -0.28400
C1607       C  0.93070125  0.45530265  0.49725885     0.07100
C1608       C  0.92790157  0.43125636  0.50339457    -0.27100
H1609       H  0.87128143  0.48882002  0.47194179     0.11900
H1610       H  0.83157588  0.47104246  0.47234827     0.13000
H1611       H  0.91720126  0.38647544  0.51617622     0.12100
H1612       H  0.87746146  0.36890257  0.51710274     0.11300
H1613       H  0.83452253  0.37285946  0.51191188     0.16700
H1614       H  0.80506364  0.43764684  0.48285697     0.12600
H1615       H  0.91353985  0.48685859  0.48364892     0.15500
H1616       H  0.94269000  0.42163275  0.51134259     0.15200
C1617       C  0.77902779  0.39038175  0.77454820    -0.17600
C1618       C  0.76797789  0.36811889  0.77467692    -0.19800
C1619       C  0.77923166  0.34840256  0.76414012     0.20800
C1620       C  0.80219274  0.35099635  0.75404100    -0.02700
C1621       C  0.81326895  0.37351211  0.75374416    -0.05800
C1622       C  0.80147268  0.39336000  0.76373693     0.21100
C1623       C  0.83578808  0.37629237  0.74271775     0.19300
C1624       C  0.84734282  0.35645537  0.73278262    -0.17300
C1625       C  0.83633648  0.33418492  0.73297439    -0.19500
C1626       C  0.81362821  0.33134796  0.74319922     0.20800
C1627       C  0.80162123  0.30957608  0.74154661    -0.32500
C1628       C  0.77831077  0.30726962  0.75041164     0.01500
C1629       C  0.76744316  0.32649877  0.76228345    -0.23800
C1630       C  0.81206389  0.41590865  0.76221417    -0.28400
C1631       C  0.83420879  0.41890816  0.75062995     0.07100
C1632       C  0.84611300  0.39893389  0.74128723    -0.27100
H1633       H  0.76977868  0.40539040  0.78242479     0.11900
H1634       H  0.75038436  0.36643570  0.78255296     0.13000
H1635       H  0.86469334  0.35826176  0.72437858     0.12100
H1636       H  0.84537281  0.31928168  0.72461752     0.11300
H1637       H  0.80971412  0.29486885  0.73183959     0.16700
H1638       H  0.74924269  0.32482331  0.76852993     0.12600
H1639       H  0.80291760  0.43116442  0.76972952     0.15500
H1640       H  0.86332621  0.40103846  0.73262851     0.15200
C1641       C  0.71776890  0.08142334  0.72694272    -0.17600
C1642       C  0.72786222  0.10412770  0.72744770    -0.19800
C1643       C  0.71482232  0.12355241  0.73620772     0.20800
C1644       C  0.69113203  0.12017826  0.74392473    -0.02700
C1645       C  0.68099583  0.09722376  0.74356270    -0.05800
C1646       C  0.69448206  0.07771303  0.73528929     0.21100
C1647       C  0.65762533  0.09370815  0.75215773     0.19300
C1648       C  0.64438691  0.11321376  0.76040157    -0.17300
C1649       C  0.65445619  0.13592051  0.76087180    -0.19500
C1650       C  0.67790935  0.13953714  0.75301833     0.20800
C1651       C  0.68878458  0.16185367  0.75534876    -0.32500
C1652       C  0.71269544  0.16498647  0.74884130     0.01500
C1653       C  0.72542891  0.14598854  0.73865968    -0.23800
C1654       C  0.68461702  0.05479776  0.73594897    -0.28400
C1655       C  0.66151547  0.05110232  0.74499398     0.07100
C1656       C  0.64805821  0.07070546  0.75281062    -0.27100
H1657       H  0.72834267  0.06667783  0.72044668     0.11900
H1658       H  0.74605769  0.10640769  0.72143952     0.13000
H1659       H  0.62637566  0.11083619  0.76693514     0.12100
H1660       H  0.64405024  0.15057741  0.76786870     0.11300
H1661       H  0.67920484  0.17639281  0.76378006     0.16700
H1662       H  0.74404690  0.14832680  0.73424340     0.12600
H1663       H  0.69502689  0.03981219  0.72973074     0.15500
H1664       H  0.63014809  0.06805148  0.75956316     0.15200
C1665       C  0.78646997  0.13745636  0.87559846    -0.17600
C1666       C  0.78650917  0.14843825  0.85244093    -0.19800
C1667       C  0.77241705  0.16849976  0.84807376     0.20800
C1668       C  0.75884389  0.17818293  0.86747156    -0.02700
C1669       C  0.75881217  0.16708924  0.89086856    -0.05800
C1670       C  0.77233695  0.14636357  0.89474996     0.21100
C1671       C  0.74454555  0.17617488  0.91004876     0.19300
C1672       C  0.73093996  0.19662893  0.90582805    -0.17300
C1673       C  0.73079583  0.20749890  0.88255720    -0.19500
C1674       C  0.74436322  0.19819281  0.86315031     0.20800
C1675       C  0.74260246  0.20757967  0.83917592    -0.32500
C1676       C  0.75496640  0.19702915  0.81957584     0.01500
C1677       C  0.77051285  0.17811829  0.82430011    -0.23800
C1678       C  0.77094986  0.13447712  0.91745056    -0.28400
C1679       C  0.75631951  0.14304855  0.93641605     0.07100
C1680       C  0.74358437  0.16421724  0.93282393    -0.27100
H1681       H  0.79706596  0.12165349  0.87835568     0.11900
H1682       H  0.79705607  0.14083770  0.83774275     0.13000
H1683       H  0.71994890  0.20388337  0.92035568     0.12100
H1684       H  0.71961343  0.22285908  0.87957774     0.11300
H1685       H  0.73028490  0.22188452  0.83538088     0.16700
H1686       H  0.77974323  0.16981110  0.80904467     0.12600
H1687       H  0.78104185  0.11833737  0.92025232     0.15500
H1688       H  0.73236113  0.17094694  0.94745278     0.15200
C1689       C  0.70675861  0.33679804  0.62396950    -0.17600
C1690       C  0.70439638  0.32436705  0.64623154    -0.19800
C1691       C  0.71911581  0.30493710  0.65145423     0.20800
C1692       C  0.73574443  0.29735294  0.63367483    -0.02700
C1693       C  0.73816947  0.30993094  0.61125217    -0.05800
C1694       C  0.72388684  0.32999831  0.60657896     0.21100
C1695       C  0.75542255  0.30288572  0.59388619     0.19300
C1696       C  0.76978428  0.28314681  0.59886831    -0.17300
C1697       C  0.76754466  0.27083178  0.62118580    -0.19500
C1698       C  0.75083095  0.27798649  0.63883171     0.20800
C1699       C  0.75011589  0.26723467  0.66218512    -0.32500
C1700       C  0.73492229  0.27596407  0.68052537     0.01500
C1701       C  0.71873036  0.29406597  0.67476704    -0.23800
C1702       C  0.72724734  0.34309992  0.58478310    -0.28400
C1703       C  0.74446016  0.33616796  0.56748495     0.07100
C1704       C  0.75828743  0.31592079  0.57202130    -0.27100
H1705       H  0.69552378  0.35203125  0.62057767     0.11900
H1706       H  0.69150380  0.33036850  0.65966285     0.13000
H1707       H  0.78308319  0.27751352  0.58570235     0.12100
H1708       H  0.77928457  0.25604705  0.62489000     0.11300
H1709       H  0.76294381  0.25364389  0.66689546     0.16700
H1710       H  0.70738146  0.30106886  0.68916508     0.12600
H1711       H  0.71635830  0.35855600  0.58117589     0.15500
H1712       H  0.77154483  0.31052255  0.55868083     0.15200
C1713       C  0.71337544  0.38891399  0.23057915    -0.17600
C1714       C  0.72206086  0.36570019  0.22922109    -0.19800
C1715       C  0.70907975  0.34671219  0.23924780     0.20800
C1716       C  0.68676009  0.35110050  0.25014857    -0.02700
C1717       C  0.67797116  0.37458217  0.25151128    -0.05800
C1718       C  0.69149920  0.39359144  0.24193100     0.21100
C1719       C  0.65593895  0.37908390  0.26294458     0.19300
C1720       C  0.64273506  0.36001279  0.27256047    -0.17300
C1721       C  0.65158673  0.33680948  0.27152179    -0.19500
C1722       C  0.67372726  0.33220108  0.26066811     0.20800
C1723       C  0.68376390  0.30937431  0.26156873    -0.32500
C1724       C  0.70665943  0.30523803  0.25213001     0.01500
C1725       C  0.71873577  0.32373908  0.24004086    -0.23800
C1726       C  0.68298522  0.41694485  0.24389489    -0.28400
C1727       C  0.66099791  0.42164523  0.25515524     0.07100
C1728       C  0.64757707  0.40255518  0.26464641    -0.27100
H1729       H  0.72393640  0.40327172  0.22301259     0.11900
H1730       H  0.73922827  0.36267146  0.22081387     0.13000
H1731       H  0.62572826  0.36309057  0.28128191     0.12100
H1732       H  0.64131066  0.32252159  0.27965385     0.11300
H1733       H  0.67468276  0.29526755  0.27144027     0.16700
H1734       H  0.73661517  0.32073826  0.23337196     0.12600
H1735       H  0.69337265  0.43145972  0.23636174     0.15500
H1736       H  0.63054157  0.40593904  0.27320156     0.15200
C1737       C  0.78158161  0.08559932  0.27176944    -0.17600
C1738       C  0.77157729  0.10832833  0.27241280    -0.19800
C1739       C  0.78468650  0.12820119  0.26464498     0.20800
C1740       C  0.80831377  0.12519156  0.25663808    -0.02700
C1741       C  0.81836732  0.10222318  0.25585915    -0.05800
C1742       C  0.80486970  0.08229719  0.26326426     0.21100
C1743       C  0.84169559  0.09915581  0.24702874     0.19300
C1744       C  0.85492541  0.11904089  0.23954769    -0.17300
C1745       C  0.84492360  0.14173736  0.24014348    -0.19500
C1746       C  0.82154806  0.14497742  0.24835157     0.20800
C1747       C  0.81071168  0.16737285  0.24699217    -0.32500
C1748       C  0.78680981  0.17020994  0.25368717     0.01500
C1749       C  0.77415499  0.15076083  0.26330269    -0.23800
C1750       C  0.81477602  0.05943304  0.26168043    -0.28400
C1751       C  0.83793541  0.05623896  0.25255992     0.07100
C1752       C  0.85128891  0.07624872  0.24545401    -0.27100
H1753       H  0.77095704  0.07054575  0.27755825     0.11900
H1754       H  0.75339407  0.11030159  0.27854194     0.13000
H1755       H  0.87289375  0.11699150  0.23280535     0.12100
H1756       H  0.85532645  0.15670931  0.23370403     0.11300
H1757       H  0.82023419  0.18221996  0.23891232     0.16700
H1758       H  0.75552191  0.15282033  0.26775333     0.12600
H1759       H  0.80441374  0.04414039  0.26734216     0.15500
H1760       H  0.86921490  0.07400373  0.23862873     0.15200
C1761       C  0.73037390  0.27757129  0.40994357    -0.17600
C1762       C  0.72954045  0.26631389  0.38699111    -0.19800
C1763       C  0.74183380  0.27582956  0.36671446     0.20800
C1764       C  0.75567773  0.29652713  0.36976324    -0.02700
C1765       C  0.75632075  0.30799657  0.39281757    -0.05800
C1766       C  0.74337690  0.29862061  0.41293309     0.21100
C1767       C  0.76916804  0.32934704  0.39545317     0.19300
C1768       C  0.78191161  0.33860213  0.37536841    -0.17300
C1769       C  0.78130115  0.32722864  0.35253637    -0.19500
C1770       C  0.76794681  0.30644022  0.34947478     0.20800
C1771       C  0.76553403  0.29617625  0.32617438    -0.32500
C1772       C  0.75073107  0.27643251  0.32281933     0.01500
C1773       C  0.73947488  0.26585315  0.34316062    -0.23800
C1774       C  0.74301962  0.31091315  0.43539632    -0.28400
C1775       C  0.75500380  0.33267117  0.43771530     0.07100
C1776       C  0.76841192  0.34151885  0.41787143    -0.27100
H1777       H  0.72037785  0.27012719  0.42520305     0.11900
H1778       H  0.71885496  0.25044743  0.38496651     0.13000
H1779       H  0.79191751  0.35492734  0.37717130     0.12100
H1780       H  0.79078920  0.33502685  0.33710554     0.11300
H1781       H  0.77380003  0.30449204  0.31025314     0.16700
H1782       H  0.72768837  0.25089721  0.34031541     0.12600
H1783       H  0.73273809  0.30401644  0.45074327     0.15500
H1784       H  0.77791715  0.35815206  0.41972834     0.15200
C1785       C  0.71369841  0.14190150  0.12586888    -0.17600
C1786       C  0.71305846  0.15386714  0.14840764    -0.19800
C1787       C  0.72882414  0.17260137  0.15303945     0.20800
C1788       C  0.74498832  0.17981189  0.13455898    -0.02700
C1789       C  0.74557574  0.16778895  0.11178742    -0.05800
C1790       C  0.73008507  0.14851918  0.10759226     0.21100
C1791       C  0.76211238  0.17461009  0.09351299     0.19300
C1792       C  0.77778356  0.19344588  0.09809805    -0.17300
C1793       C  0.77743455  0.20514159  0.12081150    -0.19500
C1794       C  0.76125680  0.19834180  0.13921768     0.20800
C1795       C  0.76192544  0.20880076  0.16264845    -0.32500
C1796       C  0.74662480  0.20085732  0.18135967     0.01500
C1797       C  0.72965196  0.18332577  0.17629010    -0.23800
C1798       C  0.73155204  0.13593716  0.08538323    -0.28400
C1799       C  0.74803187  0.14261443  0.06718521     0.07100
C1800       C  0.76300580  0.16216338  0.07118271    -0.27100
H1801       H  0.70162335  0.12722744  0.12287879     0.11900
H1802       H  0.70057872  0.14811878  0.16243165     0.13000
H1803       H  0.79060587  0.19885582  0.08427371     0.12100
H1804       H  0.79007862  0.21926674  0.12412431     0.11300
H1805       H  0.77542888  0.22187206  0.16691238     0.16700
H1806       H  0.71835150  0.17682930  0.19105446     0.12600
H1807       H  0.71984506  0.12098278  0.08221562     0.15500
H1808       H  0.77576903  0.16728841  0.05716306     0.15200
C1809       C  0.65283936  0.51736777  0.97138195    -0.17600
C1810       C  0.63099599  0.50545695  0.97143446    -0.19800
C1811       C  0.61156792  0.51460257  0.98452484     0.20800
C1812       C  0.61409344  0.53635864  0.99715313    -0.02700
C1813       C  0.63621501  0.54832623  0.99721802    -0.05800
C1814       C  0.65574991  0.53861789  0.98450923     0.21100
C1815       C  0.63892758  0.56965783  0.01052422     0.19300
C1816       C  0.61939518  0.57905534  0.02324332    -0.17300
C1817       C  0.59756718  0.56716315  0.02329341    -0.19500
C1818       C  0.59480028  0.54569388  0.01053938     0.20800
C1819       C  0.57348229  0.53281813  0.01199157    -0.32500
C1820       C  0.57117668  0.51057030  0.00051265     0.01500
C1821       C  0.59009652  0.50182838  0.98628004    -0.23800
C1822       C  0.67792539  0.55008416  0.98548821    -0.28400
C1823       C  0.68091630  0.57117883  0.99901546     0.07100
C1824       C  0.66118905  0.58098854  0.01123695    -0.27100
H1825       H  0.66760394  0.50971338  0.96140332     0.11900
H1826       H  0.62943184  0.48883287  0.96159366     0.13000
H1827       H  0.62110042  0.59542615  0.03350605     0.12100
H1828       H  0.58293870  0.57456509  0.03369441     0.11300
H1829       H  0.55914850  0.53928870  0.02348908     0.16700
H1830       H  0.58862444  0.48441731  0.97798324     0.12600
H1831       H  0.69291371  0.54249392  0.97580401     0.15500
H1832       H  0.66322024  0.59729915  0.02155976     0.15200
C1833       C  0.86605209  0.50796533  0.01757035    -0.17600
C1834       C  0.84332930  0.51794968  0.01757956    -0.19800
C1835       C  0.83984143  0.54143437  0.00967095     0.20800
C1836       C  0.85959729  0.55519307  0.00232850    -0.02700
C1837       C  0.88258663  0.54516471  0.00249577    -0.05800
C1838       C  0.88574665  0.52132096  0.00981044     0.21100
C1839       C  0.90223157  0.55867853  0.99434657     0.19300
C1840       C  0.89880367  0.58229402  0.98686425    -0.17300
C1841       C  0.87607275  0.59225329  0.98682393    -0.19500
C1842       C  0.85631998  0.57875016  0.99415343     0.20800
C1843       C  0.83332801  0.58824994  0.99298313    -0.32500
C1844       C  0.81346434  0.57453744  0.99982324     0.01500
C1845       C  0.81693051  0.55123292  0.00850666    -0.23800
C1846       C  0.90829492  0.51090005  0.00799771    -0.28400
C1847       C  0.92767724  0.52392410  0.99880388     0.07100
C1848       C  0.92467662  0.54795779  0.99257946    -0.27100
H1849       H  0.86815911  0.48963137  0.02322110     0.11900
H1850       H  0.82840586  0.50713934  0.02334873     0.13000
H1851       H  0.91365467  0.59294044  0.98057398     0.12100
H1852       H  0.87388620  0.61040723  0.98060917     0.11300
H1853       H  0.83088992  0.60631815  0.98656907     0.16700
H1854       H  0.80177980  0.54061944  0.01405661     0.12600
H1855       H  0.91048143  0.49218122  0.01207710     0.15500
H1856       H  0.93946009  0.55777989  0.98479395     0.15200
C1857       C  0.85481378  0.86016828  0.25344855    -0.17600
C1858       C  0.84442349  0.83764461  0.25198085    -0.19800
C1859       C  0.82030833  0.83518648  0.24617495     0.20800
C1860       C  0.80673289  0.85561158  0.24087262    -0.02700
C1861       C  0.81725719  0.87836867  0.24227468    -0.05800
C1862       C  0.84129338  0.88064522  0.24906600     0.21100
C1863       C  0.80353435  0.89884225  0.23768624     0.19300
C1864       C  0.77956578  0.89634109  0.23122079    -0.17300
C1865       C  0.76905115  0.87383310  0.23021356    -0.19500
C1866       C  0.78237085  0.85339308  0.23539520     0.20800
C1867       C  0.77148777  0.83096962  0.23673577    -0.32500
C1868       C  0.78466335  0.81079227  0.24342989     0.01500
C1869       C  0.80920731  0.81286267  0.24716311    -0.23800
C1870       C  0.85127491  0.90333969  0.25180234    -0.28400
C1871       C  0.83764221  0.92385982  0.24760972     0.07100
C1872       C  0.81387507  0.92143923  0.24014892    -0.27100
H1873       H  0.87333863  0.86158763  0.25849027     0.11900
H1874       H  0.85511190  0.82216773  0.25605817     0.13000
H1875       H  0.76879215  0.91183985  0.22751855     0.12100
H1876       H  0.75034598  0.87245523  0.22590547     0.11300
H1877       H  0.75245361  0.82942488  0.23442097     0.16700
H1878       H  0.81921309  0.79739859  0.25292135     0.12600
H1879       H  0.86969942  0.90502656  0.25718611     0.15500
H1880       H  0.80331550  0.93714387  0.23666516     0.15200
C1881       C  0.72589265  0.58038621  0.26777371    -0.17600
C1882       C  0.73731130  0.60246424  0.26843836    -0.19800
C1883       C  0.72574804  0.62298285  0.26002005     0.20800
C1884       C  0.70222468  0.62128177  0.25129599    -0.02700
C1885       C  0.69077062  0.59892818  0.25039681    -0.05800
C1886       C  0.70272816  0.57836976  0.25854875     0.21100
C1887       C  0.66753575  0.59710908  0.24094437     0.19300
C1888       C  0.65584530  0.61768315  0.23282760    -0.17300
C1889       C  0.66719555  0.63979235  0.23365859    -0.19500
C1890       C  0.69045058  0.64176121  0.24263483     0.20800
C1891       C  0.70256595  0.66357591  0.24188373    -0.32500
C1892       C  0.72638210  0.66511608  0.24933616     0.01500
C1893       C  0.73768330  0.64490156  0.25894926    -0.23800
C1894       C  0.69136507  0.55616504  0.25728558    -0.28400
C1895       C  0.66817062  0.55416797  0.24794431     0.07100
C1896       C  0.65642444  0.57477247  0.23973376    -0.27100
H1897       H  0.73531128  0.56481705  0.27419794     0.11900
H1898       H  0.75535409  0.60342689  0.27520464     0.13000
H1899       H  0.63798252  0.61664574  0.22559000     0.12100
H1900       H  0.65790582  0.65531195  0.22689188     0.11300
H1901       H  0.69409826  0.67899752  0.23377850     0.16700
H1902       H  0.75624559  0.64594146  0.26401688     0.12600
H1903       H  0.70053446  0.54044551  0.26373972     0.15500
H1904       H  0.63852430  0.57346848  0.23261624     0.15200
C1905       C  0.73634516  0.69693437  0.09590933    -0.16000
C1906       C  0.73892111  0.70808526  0.11873779    -0.19800
C1907       C  0.75423532  0.69865971  0.13660879     0.20800
C1908       C  0.76782176  0.67832451  0.13110957    -0.02700
C1909       C  0.76499585  0.66690465  0.10820203    -0.05800
C1910       C  0.74890011  0.67608115  0.09068669     0.21100
C1911       C  0.77744083  0.64572899  0.10329294     0.19300
C1912       C  0.79347744  0.63682376  0.12078500    -0.17300
C1913       C  0.79629935  0.64816267  0.14349940    -0.19500
C1914       C  0.78311306  0.66855295  0.14905102     0.20800
C1915       C  0.78357252  0.67829202  0.17278596    -0.32500
C1916       C  0.76862419  0.69732471  0.17884232     0.01500
C1917       C  0.75486568  0.70813688  0.16044738    -0.23800
C1918       C  0.74503823  0.66381731  0.06861605    -0.28400
C1919       C  0.75656931  0.64220151  0.06415327     0.07100
C1920       C  0.77304995  0.63344703  0.08133057    -0.27100
H1921       H  0.72399869  0.70423278  0.08261424     0.11900
H1922       H  0.72840941  0.72369689  0.12268226     0.13000
H1923       H  0.80333452  0.62072125  0.11717852     0.12100
H1924       H  0.80818302  0.64051480  0.15704649     0.11300
H1925       H  0.79392237  0.66981618  0.18716970     0.16700
H1926       H  0.74303387  0.72253401  0.16531903     0.12600
H1927       H  0.73248504  0.67068827  0.05526406     0.15500
H1928       H  0.78231513  0.61698959  0.07767322     0.15200
C1929       C  0.72456108  0.89317860  0.76175328    -0.17600
C1930       C  0.73567907  0.87098358  0.76224162    -0.19800
C1931       C  0.72287965  0.85029727  0.75671844     0.20800
C1932       C  0.69845034  0.85191654  0.75133516    -0.02700
C1933       C  0.68729118  0.87434742  0.75058855    -0.05800
C1934       C  0.70047373  0.89510380  0.75557474     0.21100
C1935       C  0.66312290  0.87603727  0.74416042     0.19300
C1936       C  0.65016814  0.85530509  0.73922555    -0.17300
C1937       C  0.66121262  0.83310329  0.73994574    -0.19500
C1938       C  0.68540554  0.83124630  0.74560678     0.20800
C1939       C  0.69707645  0.80930849  0.74422493    -0.32500
C1940       C  0.72162766  0.80787168  0.74813021     0.01500
C1941       C  0.73431699  0.82823567  0.75508280    -0.23800
C1942       C  0.68944173  0.91741349  0.75390131    -0.28400
C1943       C  0.66545640  0.91924302  0.74706300     0.07100
C1944       C  0.65240623  0.89843195  0.74240496    -0.27100
H1945       H  0.73492790  0.90889565  0.76574173     0.11900
H1946       H  0.75442950  0.87005317  0.76645731     0.13000
H1947       H  0.63156552  0.85629277  0.73439018     0.12100
H1948       H  0.65094467  0.81742592  0.73551872     0.11300
H1949       H  0.68747019  0.79365674  0.73829974     0.16700
H1950       H  0.75336156  0.82713253  0.75753821     0.12600
H1951       H  0.69956993  0.93334449  0.75768859     0.15500
H1952       H  0.63385666  0.89965047  0.73736681     0.15200
C1953       C  0.85112376  0.61375812  0.74351990    -0.17600
C1954       C  0.84059575  0.63622619  0.74347324    -0.19800
C1955       C  0.81584424  0.63851780  0.74257077     0.20800
C1956       C  0.80160697  0.61794377  0.74066077    -0.02700
C1957       C  0.81225317  0.59524800  0.74059077    -0.05800
C1958       C  0.83709287  0.59318691  0.74258404     0.21100
C1959       C  0.79800318  0.57463675  0.73944358     0.19300
C1960       C  0.77327520  0.57695568  0.73783143    -0.17300
C1961       C  0.76270989  0.59942006  0.73825497    -0.19500
C1962       C  0.77668898  0.61997677  0.74005148     0.20800
C1963       C  0.76618685  0.64239075  0.74267520    -0.32500
C1964       C  0.78024447  0.66276139  0.74595363     0.01500
C1965       C  0.80504461  0.66085302  0.74503191    -0.23800
C1966       C  0.84743576  0.57061980  0.74426738    -0.28400
C1967       C  0.83335972  0.55000484  0.74367400     0.07100
C1968       C  0.80868868  0.55211635  0.74064753    -0.27100
H1969       H  0.87024279  0.61246316  0.74483317     0.11900
H1970       H  0.85179707  0.65179817  0.74484702     0.13000
H1971       H  0.76205947  0.56136699  0.73686243     0.12100
H1972       H  0.74354923  0.60068751  0.73771574     0.11300
H1973       H  0.74704822  0.64387707  0.74381591     0.16700
H1974       H  0.81584232  0.67650467  0.74805329     0.12600
H1975       H  0.86650233  0.56909359  0.74618604     0.15500
H1976       H  0.79777412  0.53628323  0.74002194     0.15200
C1977       C  0.70971081  0.63933965  0.87428545    -0.17600
C1978       C  0.70971907  0.65030879  0.85114002    -0.19800
C1979       C  0.72398464  0.67028256  0.84672196     0.20800
C1980       C  0.73737360  0.68015120  0.86613121    -0.02700
C1981       C  0.73721799  0.66917594  0.88956414    -0.05800
C1982       C  0.72386470  0.64826975  0.89337971     0.21100
C1983       C  0.75132292  0.67841417  0.90877198     0.19300
C1984       C  0.76475642  0.69904727  0.90460801    -0.17300
C1985       C  0.76519596  0.70972566  0.88124265    -0.19500
C1986       C  0.75203127  0.70007853  0.86173268     0.20800
C1987       C  0.75446805  0.70891955  0.83759048    -0.32500
C1988       C  0.74239946  0.69801696  0.81800597     0.01500
C1989       C  0.72637044  0.67950144  0.82286096    -0.23800
C1990       C  0.72559255  0.63613923  0.91588619    -0.28400
C1991       C  0.74022587  0.64476553  0.93476849     0.07100
C1992       C  0.75246294  0.66630403  0.93143407    -0.27100
H1993       H  0.69916419  0.62346185  0.87703795     0.11900
H1994       H  0.69925013  0.64263578  0.83643279     0.13000
H1995       H  0.77554906  0.70646773  0.91919352     0.12100
H1996       H  0.77639776  0.72511031  0.87824532     0.11300
H1997       H  0.76701796  0.72305142  0.83372647     0.16700
H1998       H  0.71721669  0.67106756  0.80763603     0.12600
H1999       H  0.71581561  0.61975086  0.91859556     0.15500
H2000       H  0.76364818  0.67306336  0.94606670     0.15200
C2001       C  0.89964342  0.89879008  0.48622120    -0.17600
C2002       C  0.87711756  0.88844914  0.48546294    -0.19800
C2003       C  0.85740637  0.90050260  0.49499816     0.20800
C2004       C  0.86049900  0.92283904  0.50621332    -0.02700
C2005       C  0.88329182  0.93330045  0.50699496    -0.05800
C2006       C  0.90284982  0.92135380  0.49654497     0.21100
C2007       C  0.88629612  0.95615905  0.51711448     0.19300
C2008       C  0.86664971  0.96784807  0.52735792    -0.17300
C2009       C  0.84409736  0.95735346  0.52683323    -0.19500
C2010       C  0.84072807  0.93505172  0.51587541     0.20800
C2011       C  0.81793743  0.92496954  0.51387577    -0.32500
C2012       C  0.81471644  0.90299535  0.50203013     0.01500
C2013       C  0.83461536  0.89078951  0.49298092    -0.23800
C2014       C  0.92494893  0.93274147  0.49524370    -0.28400
C2015       C  0.92770764  0.95603455  0.50387277     0.07100
C2016       C  0.90854762  0.96741831  0.51546527    -0.27100
H2017       H  0.91447263  0.88937926  0.47815583     0.11900
H2018       H  0.87503407  0.87121507  0.47693831     0.13000
H2019       H  0.86862349  0.98535706  0.53528867     0.12100
H2020       H  0.82918559  0.96694365  0.53448601     0.11300
H2021       H  0.80271996  0.93436249  0.52115843     0.16700
H2022       H  0.83236543  0.87369899  0.48416827     0.12600
H2023       H  0.93959118  0.92423361  0.48579216     0.15500
H2024       H  0.91056601  0.98559896  0.52159097     0.15200
C2025       C  0.63198310  0.97002117  0.48084259    -0.17600
C2026       C  0.65467743  0.96002505  0.48174664    -0.19800
C2027       C  0.65772374  0.93616896  0.48858265     0.20800
C2028       C  0.63761330  0.92209575  0.49394625    -0.02700
C2029       C  0.61469521  0.93209381  0.49273093    -0.05800
C2030       C  0.61192381  0.95629394  0.48658921     0.21100
C2031       C  0.59465981  0.91813744  0.49873606     0.19300
C2032       C  0.59764073  0.89420181  0.50516404    -0.17300
C2033       C  0.62033041  0.88431449  0.50638116    -0.19500
C2034       C  0.64041684  0.89818449  0.50113492     0.20800
C2035       C  0.66325022  0.88858072  0.50315718    -0.32500
C2036       C  0.68340398  0.90242064  0.49781431     0.01500
C2037       C  0.68049771  0.92618951  0.49038798    -0.23800
C2038       C  0.58933218  0.96663243  0.48777141    -0.28400
C2039       C  0.56962607  0.95308322  0.49512573     0.07100
C2040       C  0.57219794  0.92872037  0.49970560    -0.27100
H2041       H  0.63015978  0.98861977  0.47609573     0.11900
H2042       H  0.66989028  0.97107565  0.47750414     0.13000
H2043       H  0.58245416  0.88325881  0.50981448     0.12100
H2044       H  0.62219176  0.86588745  0.51178369     0.11300
H2045       H  0.66531769  0.87019245  0.50866496     0.16700
H2046       H  0.69594219  0.93693093  0.48614690     0.12600
H2047       H  0.58730433  0.98556116  0.48481912     0.15500
H2048       H  0.55700936  0.91849786  0.50593883     0.15200
C2049       C  0.72943207  0.76594237  0.61595319    -0.17600
C2050       C  0.72882239  0.77707015  0.59283449    -0.19800
C2051       C  0.74416289  0.79604882  0.58750811     0.20800
C2052       C  0.76102404  0.80317908  0.60524018    -0.02700
C2053       C  0.76186854  0.79174027  0.62841284    -0.05800
C2054       C  0.74555890  0.77344938  0.63402618     0.21100
C2055       C  0.77810085  0.79956566  0.64645419     0.19300
C2056       C  0.79399190  0.81798096  0.64085411    -0.17300
C2057       C  0.79308111  0.82937599  0.61794489    -0.19500
C2058       C  0.77630595  0.82247447  0.60027810     0.20800
C2059       C  0.77394845  0.83510793  0.57813661    -0.32500
C2060       C  0.75665350  0.82862111  0.56079108     0.01500
C2061       C  0.74231609  0.80863636  0.56519991    -0.23800
C2062       C  0.74466680  0.76413852  0.65807333    -0.28400
C2063       C  0.75979056  0.77303393  0.67640930     0.07100
C2064       C  0.77706916  0.78998519  0.67028599    -0.27100
H2065       H  0.71685158  0.75188228  0.61992456     0.11900
H2066       H  0.71585372  0.77131258  0.57939512     0.13000
H2067       H  0.80660074  0.82410520  0.65449492     0.12100
H2068       H  0.80506402  0.84402364  0.61430207     0.11300
H2069       H  0.78530344  0.85028877  0.57458684     0.16700
H2070       H  0.72907143  0.80351645  0.55175281     0.12600
H2071       H  0.73105401  0.75137020  0.66304164     0.15500
H2072       H  0.78840116  0.79705211  0.68465342     0.15200
C2073       C  0.77151347  0.77981339  0.40116158    -0.17600
C2074       C  0.77121665  0.76862410  0.37813423    -0.19800
C2075       C  0.75724375  0.77764153  0.35886135     0.20800
C2076       C  0.74301798  0.79785029  0.36303429    -0.02700
C2077       C  0.74367288  0.80939685  0.38609294    -0.05800
C2078       C  0.75806502  0.80038472  0.40521902     0.21100
C2079       C  0.73045884  0.83035640  0.38974331     0.19300
C2080       C  0.71611300  0.83911854  0.37067208    -0.17300
C2081       C  0.71529189  0.82756835  0.34792379    -0.19500
C2082       C  0.72894072  0.80717637  0.34382437     0.20800
C2083       C  0.72988830  0.79686609  0.32040469    -0.32500
C2084       C  0.74528643  0.77786268  0.31566461     0.01500
C2085       C  0.75829666  0.76774616  0.33511628    -0.23800
C2086       C  0.75909321  0.81237295  0.42786868    -0.28400
C2087       C  0.74642687  0.83358118  0.43134828     0.07100
C2088       C  0.73210320  0.84240867  0.41224864    -0.27100
H2089       H  0.78264902  0.77265806  0.41564347     0.11900
H2090       H  0.78224570  0.75314676  0.37527124     0.13000
H2091       H  0.70577976  0.85511461  0.37323236     0.12100
H2092       H  0.70444727  0.83494745  0.33331390     0.11300
H2093       H  0.72017597  0.80485127  0.30525160     0.16700
H2094       H  0.77053484  0.75339198  0.33131369     0.12600
H2095       H  0.77017184  0.80552765  0.44257589     0.15500
H2096       H  0.72213017  0.85862694  0.41496048     0.15200
loop_ 
_geom_bond_atom_site_label_1 
_geom_bond_atom_site_label_2 
_geom_bond_distance 
_geom_bond_site_symmetry_2 
_ccdc_geom_bond_type 
In1           O3   2.236       .  S
In1           O4   2.253       .  S
In1          O12   2.246       .  S
In1           O6   2.267       .  S
In1           O8   2.268       .  S
In1           O9   2.249       .  S
In1          O10   2.237       .  S
In1          O13   2.248       .  S
C2            O8   1.263       .  A
C2           O10   1.261       .  A
C2         C2012   1.483       .  S
O3           C11   1.259       .  A
O4           C11   1.261       .  A
C5           O12   1.259       .  A
C5            O6   1.261       .  A
C5         C2036   1.482       .  S
C7            O9   1.260       .  A
C7           O13   1.261       .  A
C7         C2087   1.476       .  S
C11        C2060   1.473       .  S
C14        C2063   1.476       .  S
C14          C15   1.396       .  A
C14          C19   1.412       .  A
C15          C16   1.394       .  A
C15          H34   1.086       .  S
C16        C1940   1.480       .  S
C16          C17   1.413       .  A
C17          C18   1.424       .  A
C17          C24   1.404       .  A
C18          C19   1.421       .  A
C18          C23   1.420       .  A
C19          C20   1.406       .  A
C20          C21   1.395       .  A
C20          H30   1.083       .  S
C21          C22   1.405       .  A
C21          H31   1.083       .  S
C22          C23   1.424       .  A
C22          C29   1.415       .  A
C23          C26   1.421       .  A
C24          C25   1.394       .  A
C24          H32   1.083       .  S
C25          C26   1.407       .  A
C25          H33   1.082       .  S
C26          C27   1.413       .  A
C27        C1988   1.480       .  S
C27          C28   1.398       .  A
C28          C29   1.395       .  A
C28          H35   1.086       .  S
C29        C1964   1.484       .  S
C36        C1868   1.483       .  S
C36          C37   1.393       .  A
C36          C41   1.414       .  A
C37          C38   1.397       .  A
C37          H56   1.086       .  S
C38        C2084   1.481       .  S
C38          C39   1.415       .  A
C39          C40   1.421       .  A
C39          C46   1.407       .  A
C40          C41   1.425       .  A
C40          C45   1.421       .  A
C41          C42   1.403       .  A
C42          C43   1.395       .  A
C42          H52   1.083       .  S
C43          C44   1.407       .  A
C43          H53   1.082       .  S
C44          C45   1.420       .  A
C44          C51   1.413       .  A
C45          C48   1.425       .  A
C46          C47   1.397       .  A
C46          H54   1.082       .  S
C47          C48   1.404       .  A
C47          H55   1.083       .  S
C48          C49   1.416       .  A
C49        C1892   1.484       .  S
C49          C50   1.394       .  A
C50          C51   1.397       .  A
C50          H57   1.086       .  S
C51        C1916   1.477       .  S
In58         O60   2.241   1_556  S
In58         O61   2.239   1_556  S
In58         O69   2.252       .  S
In58         O63   2.270   1_556  S
In58         O65   2.265       .  S
In58         O66   2.251       .  S
In58         O67   2.268   1_556  S
In58         O70   2.243       .  S
C59          O65   1.262       .  A
C59          O67   1.261   1_556  A
C59        C1823   1.490       .  S
O60          C68   1.261       .  A
O61          C68   1.261       .  A
C62          O69   1.260       .  A
C62          O63   1.263   1_556  A
C62        C1844   1.486       .  S
C64          O66   1.259       .  A
C64          O70   1.261       .  A
C64        C1991   1.474       .  S
C68        C1919   1.472       .  S
C71        C1796   1.473       .  S
C71          C72   1.394       .  A
C71          C76   1.412       .  A
C72          C73   1.393       .  A
C72          H91   1.086       .  S
C73        C1748   1.483       .  S
C73          C74   1.415       .  A
C74          C75   1.426       .  A
C74          C81   1.403       .  A
C75          C76   1.420       .  A
C75          C80   1.420       .  A
C76          C77   1.407       .  A
C77          C78   1.398       .  A
C77          H87   1.083       .  S
C78          C79   1.404       .  A
C78          H88   1.083       .  S
C79          C80   1.427       .  A
C79          C86   1.418       .  A
C80          C83   1.420       .  A
C81          C82   1.395       .  A
C81          H89   1.083       .  S
C82          C83   1.407       .  A
C82          H90   1.083       .  S
C83          C84   1.411       .  A
C84        C1772   1.473       .  S
C84          C85   1.394       .  A
C85          C86   1.394       .  A
C85          H92   1.086       .  S
C86        C1724   1.486       .  S
C93        C1700   1.477       .  S
C93          C94   1.396       .  A
C93          C98   1.413       .  A
C94          C95   1.393       .  A
C94         H113   1.086       .  S
C95        C1628   1.480       .  S
C95          C96   1.414       .  A
C96          C97   1.424       .  A
C96         C103   1.404       .  A
C97          C98   1.422       .  A
C97         C102   1.420       .  A
C98          C99   1.406       .  A
C99         C100   1.396       .  A
C99         H109   1.083       .  S
C100        C101   1.405       .  A
C100        H110   1.083       .  S
C101        C102   1.424       .  A
C101        C108   1.414       .  A
C102        C105   1.422       .  A
C103        C104   1.396       .  A
C103        H111   1.083       .  S
C104        C105   1.406       .  A
C104        H112   1.082       .  S
C105        C106   1.414       .  A
C106       C1676   1.481       .  S
C106        C107   1.397       .  A
C107        C108   1.394       .  A
C107        H114   1.086       .  S
C108       C1652   1.481       .  S
In115       O117   2.249       .  S
In115       O118   2.237       .  S
In115       O126   2.240       .  S
In115       O120   2.261       .  S
In115       O122   2.264       .  S
In115       O123   2.232       .  S
In115       O124   2.241       .  S
In115       O127   2.249       .  S
C116        O122   1.262       .  A
C116        O124   1.259       .  A
C116       C1604   1.481       .  S
O117        C125   1.261       .  A
O118        C125   1.260       .  A
C119        O126   1.260       .  A
C119        O120   1.263       .  A
C119       C1580   1.481       .  S
C121        O123   1.259       .  A
C121        O127   1.260       .  A
C121       C1775   1.472       .  S
C125       C1703   1.474       .  S
In128       O130   2.241       .  S
In128       O131   2.245       .  S
In128       O139   2.255       .  S
In128       O133   2.260   1_554  S
In128       O135   2.276       .  S
In128       O136   2.256   1_554  S
In128       O137   2.245   1_554  S
In128       O140   2.244   1_554  S
C129        O135   1.263       .  A
C129        O137   1.260   1_554  A
C129       C1535   1.486       .  S
O130        C138   1.260       .  A
O131        C138   1.261       .  A
C132        O139   1.260       .  A
C132        O133   1.263   1_554  A
C132       C1559   1.484       .  S
C134        O136   1.260       .  A
C134        O140   1.260       .  A
C134       C1679   1.477       .  S
C138       C1799   1.472       .  S
In141       O143   2.232       .  S
In141       O144   2.239       .  S
In141       O152   2.241       .  S
In141       O146   2.265       .  S
In141       O148   2.260       .  S
In141       O149   2.250       .  S
In141       O150   2.249       .  S
In141       O153   2.231       .  S
C142        O148   1.261       .  A
C142        O150   1.259       .  A
C142       C1631   1.482       .  S
O143        C151   1.260       .  A
O144        C151   1.260       .  A
C145        O152   1.261       .  A
C145        O146   1.263       .  A
C145       C1967   1.481       .  S
C147        O149   1.259       .  A
C147        O153   1.260       .  A
C147       C1487   1.473       .  S
C151       C1508   1.467       .  S
In154       O156   2.240       .  S
In154       O157   2.255       .  S
In154       O165   2.251       .  S
In154       O159   2.258       .  S
In154       O161   2.252       .  S
In154       O162   2.244       .  S
In154       O163   2.257       .  S
In154       O166   2.235       .  S
C155        O161   1.262       .  A
C155        O163   1.261       .  A
C155       C1415   1.483       .  S
O156        C164   1.259       .  A
O157        C164   1.260       .  A
C158        O165   1.261       .  A
C158        O159   1.262       .  A
C158       C1388   1.482       .  S
C160        O162   1.260       .  A
C160        O166   1.260       .  A
C160       C1463   1.471       .  S
C164       C1439   1.475       .  S
C167       C1847   1.484       .  S
C167        C168   1.392       .  A
C167        C172   1.415   1_556  A
C168        C169   1.398       .  A
C168        H187   1.086       .  S
C169       C1484   1.481       .  S
C169        C170   1.415       .  A
C170        C171   1.422       .  A
C170        C177   1.407   1_655  A
C171        C172   1.426   1_556  A
C171        C176   1.421   1_656  A
C172        C173   1.404       .  A
C173        C174   1.396       .  A
C173        H183   1.083       .  S
C174        C175   1.406   1_655  A
C174        H184   1.083       .  S
C175        C176   1.421       .  A
C175        C182   1.413       .  A
C176        C179   1.425   1_554  A
C177        C178   1.397       .  A
C177        H185   1.082       .  S
C178        C179   1.404       .  A
C178        H186   1.083       .  S
C179        C180   1.416   1_556  A
C180       C1367   1.484       .  S
C180        C181   1.393       .  A
C181        C182   1.395       .  A
C181        H188   1.086       .  S
C182       C1436   1.477       .  S
C189       C1607   1.477       .  S
C189        C190   1.394       .  A
C189        C194   1.413       .  A
C190        C191   1.393       .  A
C190        H209   1.086       .  S
C191       C1511   1.467       .  S
C191        C192   1.406       .  A
C192        C193   1.418       .  A
C192        C199   1.406   1_655  A
C193        C194   1.423       .  A
C193        C198   1.415   1_655  A
C194        C195   1.404       .  A
C195        C196   1.395       .  A
C195        H205   1.083       .  S
C196        C197   1.407   1_655  A
C196        H206   1.082       .  S
C197        C198   1.420       .  A
C197        C204   1.412       .  A
C198        C201   1.422       .  A
C199        C200   1.391       .  A
C199        H207   1.083       .  S
C200        C201   1.403       .  A
C200        H208   1.083       .  S
C201        C202   1.407       .  A
C202       C1340   1.473       .  S
C202        C203   1.391       .  A
C203        C204   1.395       .  A
C203        H210   1.086       .  S
C204       C1460   1.474       .  S
C211       C1319   1.482       .  S
C211        C212   1.398       .  A
C211        C216   1.415       .  A
C212        C213   1.393       .  A
C212        H231   1.086       .  S
C213       C1820   1.491       .  S
C213        C214   1.418   1_554  A
C214        C215   1.428   1_556  A
C214        C221   1.403       .  A
C215        C216   1.422       .  A
C215        C220   1.423   1_554  A
C216        C217   1.408       .  A
C217        C218   1.397       .  A
C217        H227   1.082       .  S
C218        C219   1.403       .  A
C218        H228   1.083       .  S
C219        C220   1.428   1_554  A
C219        C226   1.418   1_554  A
C220        C223   1.423       .  A
C221        C222   1.397       .  A
C221        H229   1.083       .  S
C222        C223   1.407       .  A
C222        H230   1.082       .  S
C223        C224   1.416       .  A
C224       C1292   1.483       .  S
C224        C225   1.398       .  A
C225        C226   1.391       .  A
C225        H232   1.086       .  S
C226       C1271   1.489   1_556  S
In233       O235   2.240       .  S
In233       O236   2.248       .  S
In233       O244   2.254       .  S
In233       O238   2.262       .  S
In233       O240   2.260       .  S
In233       O241   2.240       .  S
In233       O242   2.264       .  S
In233       O245   2.244       .  S
C234        O240   1.262       .  A
C234        O242   1.259       .  A
C234       C1223   1.486       .  S
O235        C243   1.261       .  A
O236        C243   1.259       .  A
C237        O244   1.261       .  A
C237        O238   1.263       .  A
C237       C1199   1.485       .  S
C239        O241   1.260       .  A
C239        O245   1.260       .  A
C239       C1244   1.472       .  S
C243       C1295   1.475       .  S
C246       C1172   1.479       .  S
C246        C247   1.396       .  A
C246        C251   1.413       .  A
C247        C248   1.395       .  A
C247        H266   1.086       .  S
C248       C1583   1.481       .  S
C248        C249   1.414       .  A
C249        C250   1.424       .  A
C249        C256   1.404       .  A
C250        C251   1.421       .  A
C250        C255   1.419       .  A
C251        C252   1.406       .  A
C252        C253   1.394       .  A
C252        H262   1.082       .  S
C253        C254   1.403       .  A
C253        H263   1.083       .  S
C254        C255   1.424       .  A
C254        C261   1.413       .  A
C255        C258   1.421       .  A
C256        C257   1.395       .  A
C256        H264   1.083       .  S
C257        C258   1.406       .  A
C257        H265   1.082       .  S
C258        C259   1.413       .  A
C259       C1247   1.478       .  S
C259        C260   1.395       .  A
C260        C261   1.394       .  A
C260        H267   1.086       .  S
C261       C1148   1.480       .  S
In268       O270   2.244       .  S
In268       O271   2.254       .  S
In268       O279   2.264       .  S
In268       O273   2.265       .  S
In268       O275   2.264       .  S
In268       O276   2.241       .  S
In268       O277   2.260       .  S
In268       O280   2.254       .  S
C269        O275   1.263       .  A
C269        O277   1.261       .  A
C269       C1895   1.488       .  S
O270        C278   1.260       .  A
O271        C278   1.260       .  A
C272        O279   1.260       .  A
C272        O273   1.262       .  A
C272       C1727   1.488       .  S
C274        O276   1.260       .  A
C274        O280   1.262       .  A
C274       C1175   1.476       .  S
C278       C1316   1.478       .  S
C281       C1103   1.479       .  S
C281        C282   1.397       .  A
C281        C286   1.411       .  A
C282        C283   1.396       .  A
C282        H301   1.086       .  S
C283       C1196   1.481       .  S
C283        C284   1.415       .  A
C284        C285   1.422       .  A
C284        C291   1.405       .  A
C285        C286   1.419       .  A
C285        C290   1.418       .  A
C286        C287   1.406       .  A
C287        C288   1.390       .  A
C287        H297   1.082       .  S
C288        C289   1.403       .  A
C288        H298   1.083       .  S
C289        C290   1.422       .  A
C289        C296   1.409       .  A
C290        C293   1.421       .  A
C291        C292   1.396       .  A
C291        H299   1.083       .  S
C292        C293   1.407       .  A
C292        H300   1.082       .  S
C293        C294   1.415       .  A
C294       C1127   1.479       .  S
C294        C295   1.396       .  A
C295        C296   1.393       .  A
C295        H302   1.086       .  S
C296       C1076   1.477       .  S
In303       O305   2.228       .  S
In303       O306   2.246       .  S
In303       O314   2.245       .  S
In303       O308   2.265       .  S
In303       O310   2.260       .  S
In303       O311   2.251       .  S
In303       O312   2.239       .  S
In303       O315   2.230       .  S
C304        O310   1.263       .  A
C304        O312   1.260       .  A
C304       C1031   1.480       .  S
O305        C313   1.261       .  A
O306        C313   1.259       .  A
C307        O314   1.259       .  A
C307        O308   1.263       .  A
C307       C1007   1.483       .  S
C309        O311   1.261       .  A
C309        O315   1.258       .  A
C309       C1124   1.472       .  S
C313       C1055   1.468       .  S
C316       C1391   1.485       .  S
C316        C317   1.395       .  A
C316        C321   1.416       .  A
C317        C318   1.397       .  A
C317        H336   1.086       .  S
C318        C980   1.479       .  S
C318        C319   1.412       .  A
C319        C320   1.420       .  A
C319        C326   1.407       .  A
C320        C321   1.425       .  A
C320        C325   1.419       .  A
C321        C322   1.404       .  A
C322        C323   1.396       .  A
C322        H332   1.083       .  S
C323        C324   1.407       .  A
C323        H333   1.083       .  S
C324        C325   1.419       .  A
C324        C331   1.411       .  A
C325        C328   1.424       .  A
C326        C327   1.394       .  A
C326        H334   1.082       .  S
C327        C328   1.403       .  A
C327        H335   1.083       .  S
C328        C329   1.415       .  A
C329        C959   1.482       .  S
C329        C330   1.394       .  A
C330        C331   1.397       .  A
C330        H337   1.086       .  S
C331       C1052   1.474       .  S
In338       O340   2.249       .  S
In338       O341   2.231       .  S
In338       O349   2.250       .  S
In338       O343   2.269   1_554  S
In338       O345   2.272       .  S
In338       O346   2.249   1_554  S
In338       O347   2.255   1_554  S
In338       O350   2.236   1_554  S
C339        O345   1.263   1_556  A
C339        O347   1.260       .  A
C339       C1268   1.489       .  S
O340        C348   1.261       .  A
O341        C348   1.261       .  A
C342        O349   1.261       .  A
C342        O343   1.263   1_554  A
C342       C1364   1.487       .  S
C344        O346   1.260       .  A
C344        O350   1.260       .  A
C344       C1100   1.471       .  S
C348        C983   1.472       .  S
In351       O353   2.238       .  S
In351       O354   2.247       .  S
In351       O362   2.244       .  S
In351       O356   2.265       .  S
In351       O358   2.261   1_565  S
In351       O359   2.241       .  S
In351       O360   2.244   1_565  S
In351       O363   2.235       .  S
C352        O358   1.263       .  A
C352        O360   1.260       .  A
C352       C1655   1.482       .  S
O353        C361   1.260       .  A
O354        C361   1.260       .  A
C355        O362   1.260       .  A
C355        O356   1.263       .  A
C355       C1943   1.483       .  S
C357        O359   1.260       .  A
C357        O363   1.261       .  A
C357        C908   1.471       .  S
C361        C932   1.473       .  S
In364       O366   2.244       .  S
In364       O367   2.248       .  S
In364       O375   2.248       .  S
In364       O369   2.256       .  S
In364       O371   2.273   1_565  S
In364       O372   2.248       .  S
In364       O373   2.231   1_565  S
In364       O376   2.245   1_565  S
C365        O371   1.263       .  A
C365        O373   1.259       .  A
C365        C956   1.481       .  S
O366        C374   1.259       .  A
O367        C374   1.259       .  A
C368        O375   1.261       .  A
C368        O369   1.263       .  A
C368        C836   1.482       .  S
C370        O372   1.259       .  A
C370        O376   1.260   1_565  A
C370        C860   1.474       .  S
C374        C884   1.471       .  S
C377       C1532   1.483       .  S
C377        C378   1.392   1_545  A
C377        C382   1.413   1_556  A
C378        C379   1.400       .  A
C378        H397   1.086       .  S
C379        C911   1.479       .  S
C379        C380   1.414       .  A
C380        C381   1.420       .  A
C380        C387   1.408       .  A
C381        C382   1.424   1_566  A
C381        C386   1.419   1_556  A
C382        C383   1.403       .  A
C383        C384   1.393       .  A
C383        H393   1.083       .  S
C384        C385   1.406   1_545  A
C384        H394   1.082       .  S
C385        C386   1.420       .  A
C385        C392   1.410       .  A
C386        C389   1.425   1_554  A
C387        C388   1.397       .  A
C387        H395   1.082       .  S
C388        C389   1.404       .  A
C388        H396   1.083       .  S
C389        C390   1.416   1_556  A
C390        C812   1.483   1_554  S
C390        C391   1.393       .  A
C391        C392   1.396       .  A
C391        H398   1.086       .  S
C392        C863   1.475   1_565  S
C399       C2039   1.476       .  S
C399        C400   1.391       .  A
C399        C404   1.409       .  A
C400        C401   1.396       .  A
C400        H419   1.086       .  S
C401        C935   1.476       .  S
C401        C402   1.413       .  A
C402        C403   1.421       .  A
C402        C409   1.406   1_565  A
C403        C404   1.423       .  A
C403        C408   1.417       .  A
C404        C405   1.403       .  A
C405        C406   1.392       .  A
C405        H415   1.083       .  S
C406        C407   1.405       .  A
C406        H416   1.083       .  S
C407        C408   1.420       .  A
C407        C414   1.408       .  A
C408        C411   1.423       .  A
C409        C410   1.397       .  A
C409        H417   1.083       .  S
C410        C411   1.405   1_545  A
C410        H418   1.083       .  S
C411        C412   1.414   1_565  A
C412       C1028   1.477       .  S
C412        C413   1.393   1_545  A
C413        C414   1.394       .  A
C413        H420   1.086   1_565  S
C414        C887   1.470       .  S
C421       C1412   1.480       .  S
C421        C422   1.392       .  A
C421        C426   1.413       .  A
C422        C423   1.396       .  A
C422        H441   1.086       .  S
C423        C764   1.471       .  S
C423        C424   1.410       .  A
C424        C425   1.419       .  A
C424        C431   1.406       .  A
C425        C426   1.424       .  A
C425        C430   1.418       .  A
C426        C427   1.403       .  A
C427        C428   1.394       .  A
C427        H437   1.083       .  S
C428        C429   1.407       .  A
C428        H438   1.083       .  S
C429        C430   1.419       .  A
C429        C436   1.410       .  A
C430        C433   1.424       .  A
C431        C432   1.395       .  A
C431        H439   1.083       .  S
C432        C433   1.404       .  A
C432        H440   1.083       .  S
C433        C434   1.414       .  A
C434        C839   1.481       .  S
C434        C435   1.395       .  A
C435        C436   1.397       .  A
C435        H442   1.086       .  S
C436        C791   1.474       .  S
In443       O445   2.234       .  S
In443       O446   2.240       .  S
In443       O454   2.236       .  S
In443       O448   2.246       .  S
In443       O450   2.248       .  S
In443       O451   2.242       .  S
In443       O452   2.247       .  S
In443       O455   2.236       .  S
C444        O450   1.262       .  A
C444        O452   1.260       .  A
C444       C1151   1.479       .  S
O445        C453   1.261       .  A
O446        C453   1.260       .  A
C447        O454   1.260       .  A
C447        O448   1.262       .  A
C447       C1343   1.475       .  S
C449        O451   1.259       .  A
C449        O455   1.259       .  A
C449        C743   1.471       .  S
C453        C767   1.468       .  S
C456       C1220   1.485       .  S
C456        C457   1.392       .  A
C456        C461   1.415       .  A
C457        C458   1.397       .  A
C457        H476   1.086       .  S
C458        C740   1.477       .  S
C458        C459   1.414       .  A
C459        C460   1.420       .  A
C459        C466   1.408       .  A
C460        C461   1.427       .  A
C460        C465   1.420       .  A
C461        C462   1.403       .  A
C462        C463   1.395       .  A
C462        H472   1.083       .  S
C463        C464   1.407       .  A
C463        H473   1.083       .  S
C464        C465   1.419       .  A
C464        C471   1.410       .  A
C465        C468   1.427       .  A
C466        C467   1.398       .  A
C466        H474   1.082       .  S
C467        C468   1.404       .  A
C467        H475   1.083       .  S
C468        C469   1.418       .  A
C469        C692   1.486       .  S
C469        C470   1.393       .  A
C470        C471   1.395       .  A
C470        H477   1.086       .  S
C471        C716   1.473       .  S
In478       O480   2.244       .  S
In478       O481   2.247       .  S
In478       O489   2.258   1_556  S
In478       O483   2.258       .  S
In478       O485   2.262   1_556  S
In478       O486   2.257   1_556  S
In478       O487   2.252       .  S
In478       O490   2.233   1_556  S
C479        O485   1.262   1_556  A
C479        O487   1.261       .  A
C479        C668   1.483       .  S
O480        C488   1.259       .  A
O481        C488   1.260       .  A
C482        O489   1.260       .  A
C482        O483   1.262   1_554  A
C482        C815   1.484       .  S
C484        O486   1.260       .  A
C484        O490   1.259       .  A
C484        C788   1.474       .  S
C488        C719   1.473       .  S
In491       O493   2.240       .  S
In491       O494   2.250       .  S
In491       O502   2.245   1_565  S
In491       O496   2.251   1_565  S
In491       O498   2.267       .  S
In491       O499   2.256       .  S
In491       O500   2.247       .  S
In491       O503   2.243       .  S
C492        O498   1.261       .  A
C492        O500   1.260       .  A
C492        C695   1.484       .  S
O493        C501   1.259       .  A
O494        C501   1.261       .  A
C495        O502   1.261       .  A
C495        O496   1.262       .  A
C495       C1079   1.478       .  S
C497        O499   1.260       .  A
C497        O503   1.260       .  A
C497        C647   1.476       .  S
C501        C620   1.474       .  S
In504       O506   2.238       .  S
In504       O507   2.247       .  S
In504       O515   2.247   1_565  S
In504       O509   2.270   1_565  S
In504       O511   2.261       .  S
In504       O512   2.251       .  S
In504       O513   2.252       .  S
In504       O516   2.240       .  S
C505        O511   1.262       .  A
C505        O513   1.261       .  A
C505       C1871   1.484       .  S
O506        C514   1.260       .  A
O507        C514   1.261       .  A
C508        O515   1.260       .  A
C508        O509   1.262       .  A
C508       C1751   1.485       .  S
C510        O512   1.260       .  A
C510        O516   1.261       .  A
C510        C596   1.475       .  S
C514        C575   1.472       .  S
C517       C1556   1.481       .  S
C517        C518   1.394   1_545  A
C517        C522   1.413   1_554  A
C518        C519   1.398       .  A
C518        H537   1.086       .  S
C519        C572   1.477       .  S
C519        C520   1.413       .  A
C520        C521   1.420       .  A
C520        C527   1.407   1_655  A
C521        C522   1.423   1_564  A
C521        C526   1.419   1_654  A
C522        C523   1.404       .  A
C523        C524   1.395       .  A
C523        H533   1.083       .  S
C524        C525   1.406   1_645  A
C524        H534   1.083       .  S
C525        C526   1.420       .  A
C525        C532   1.411       .  A
C526        C529   1.424   1_556  A
C527        C528   1.395       .  A
C527        H535   1.082       .  S
C528        C529   1.404       .  A
C528        H536   1.083       .  S
C529        C530   1.414   1_554  A
C530        C671   1.481   1_556  S
C530        C531   1.393       .  A
C531        C532   1.396       .  A
C531        H538   1.086       .  S
C532        C623   1.476   1_565  S
C539        C599   1.482       .  S
C539        C540   1.397       .  A
C539        C544   1.414       .  A
C540        C541   1.395       .  A
C540        H559   1.086       .  S
C541       C2015   1.483       .  S
C541        C542   1.415       .  A
C542        C543   1.424       .  A
C542        C549   1.405       .  A
C543        C544   1.422       .  A
C543        C548   1.421   1_655  A
C544        C545   1.406   1_665  A
C545        C546   1.395       .  A
C545        H555   1.082       .  S
C546        C547   1.404       .  A
C546        H556   1.083       .  S
C547        C548   1.424   1_545  A
C547        C554   1.414       .  A
C548        C551   1.423       .  A
C549        C550   1.397       .  A
C549        H557   1.083       .  S
C550        C551   1.406   1_655  A
C550        H558   1.082       .  S
C551        C552   1.416       .  A
C552        C644   1.482       .  S
C552        C553   1.397       .  A
C553        C554   1.393   1_565  A
C553        H560   1.086   1_565  S
C554       C1004   1.481       .  S
C561        C562   1.398       .  A
C561        C566   1.403       .  A
C561        H577   1.084       .  S
C562        C563   1.403       .  A
C562        H578   1.084       .  S
C563        C573   1.401       .  A
C563        C564   1.412       .  A
C564        C570   1.412       .  A
C564        C565   1.410       .  A
C565        C567   1.412       .  A
C565        C566   1.411       .  A
C566        C574   1.401       .  A
C567        C576   1.402       .  A
C567        C568   1.403   1_565  A
C568        C569   1.398       .  A
C568        H579   1.083       .  S
C569        C570   1.402   1_545  A
C569        H580   1.084       .  S
C570        C571   1.400       .  A
C571        C572   1.402       .  A
C571        H581   1.085       .  S
C572        C573   1.405       .  A
C573        H582   1.085       .  S
C574        C575   1.405       .  A
C574        H583   1.084       .  S
C575        C576   1.404       .  A
C576        H584   1.084   1_565  S
C585        C586   1.400       .  A
C585        C590   1.404       .  A
C585        H601   1.084       .  S
C586        C587   1.404       .  A
C586        H602   1.083       .  S
C587        C597   1.405       .  A
C587        C588   1.412   1_565  A
C588        C594   1.412       .  A
C588        C589   1.412       .  A
C589        C591   1.412       .  A
C589        C590   1.413   1_545  A
C590        C598   1.405       .  A
C591        C600   1.401       .  A
C591        C592   1.403       .  A
C592        C593   1.398       .  A
C592        H603   1.083       .  S
C593        C594   1.403       .  A
C593        H604   1.084       .  S
C594        C595   1.401       .  A
C595        C596   1.404   1_545  A
C595        H605   1.084       .  S
C596        C597   1.406       .  A
C597        H606   1.084       .  S
C598        C599   1.405       .  A
C598        H607   1.085       .  S
C599        C600   1.404   1_565  A
C600        H608   1.085       .  S
C609        C610   1.397       .  A
C609        C614   1.402       .  A
C609        H625   1.084       .  S
C610        C611   1.403       .  A
C610        H626   1.084       .  S
C611        C621   1.401       .  A
C611        C612   1.412   1_545  A
C612        C618   1.412       .  A
C612        C613   1.410   1_565  A
C613        C615   1.412   1_545  A
C613        C614   1.412       .  A
C614        C622   1.399       .  A
C615        C624   1.403       .  A
C615        C616   1.403       .  A
C616        C617   1.399       .  A
C616        H627   1.084       .  S
C617        C618   1.404       .  A
C617        H628   1.083       .  S
C618        C619   1.403       .  A
C619        C620   1.405       .  A
C619        H629   1.084       .  S
C620        C621   1.405   1_565  A
C621        H630   1.084       .  S
C622        C623   1.403       .  A
C622        H631   1.085       .  S
C623        C624   1.404   1_545  A
C624        H632   1.085       .  S
C633        C634   1.398       .  A
C633        C638   1.403       .  A
C633        H649   1.084       .  S
C634        C635   1.403       .  A
C634        H650   1.084       .  S
C635        C645   1.400       .  A
C635        C636   1.411       .  A
C636        C642   1.413       .  A
C636        C637   1.412       .  A
C637        C639   1.412       .  A
C637        C638   1.412       .  A
C638        C646   1.401       .  A
C639        C648   1.405       .  A
C639        C640   1.404       .  A
C640        C641   1.400       .  A
C640        H651   1.083   1_565  S
C641        C642   1.404       .  A
C641        H652   1.084   1_565  S
C642        C643   1.405       .  A
C643        C644   1.405       .  A
C643        H653   1.085       .  S
C644        C645   1.406       .  A
C645        H654   1.085       .  S
C646        C647   1.405       .  A
C646        H655   1.084       .  S
C647        C648   1.407       .  A
C648        H656   1.084   1_565  S
C657        C658   1.401       .  A
C657        C662   1.404       .  A
C657        H673   1.083       .  S
C658        C659   1.404       .  A
C658        H674   1.083       .  S
C659        C669   1.407       .  A
C659        C660   1.412       .  A
C660        C666   1.411   1_554  A
C660        C661   1.414       .  A
C661        C663   1.412   1_554  A
C661        C662   1.412       .  A
C662        C670   1.406       .  A
C663        C672   1.404       .  A
C663        C664   1.403       .  A
C664        C665   1.399       .  A
C664        H675   1.084       .  S
C665        C666   1.404       .  A
C665        H676   1.083       .  S
C666        C667   1.404       .  A
C667        C668   1.407       .  A
C667        H677   1.084       .  S
C668        C669   1.408   1_556  A
C669        H678   1.084       .  S
C670        C671   1.405       .  A
C670        H679   1.084       .  S
C671        C672   1.404   1_554  A
C672        H680   1.085       .  S
C681        C682   1.402       .  A
C681        C686   1.404       .  A
C681        H697   1.083       .  S
C682        C683   1.405       .  A
C682        H698   1.084       .  S
C683        C693   1.407       .  A
C683        C684   1.411       .  A
C684        C690   1.413       .  A
C684        C685   1.416       .  A
C685        C687   1.411       .  A
C685        C686   1.413       .  A
C686        C694   1.409       .  A
C687        C696   1.404       .  A
C687        C688   1.404       .  A
C688        C689   1.400       .  A
C688        H699   1.083       .  S
C689        C690   1.404       .  A
C689        H700   1.083       .  S
C690        C691   1.407       .  A
C691        C692   1.405       .  A
C691        H701   1.084       .  S
C692        C693   1.407       .  A
C693        H702   1.084       .  S
C694        C695   1.408       .  A
C694        H703   1.084       .  S
C695        C696   1.407       .  A
C696        H704   1.084       .  S
C705        C706   1.399       .  A
C705        C710   1.404       .  A
C705        H721   1.083       .  S
C706        C707   1.403       .  A
C706        H722   1.084       .  S
C707        C717   1.402       .  A
C707        C708   1.413       .  A
C708        C714   1.412       .  A
C708        C709   1.410       .  A
C709        C711   1.412       .  A
C709        C710   1.412       .  A
C710        C718   1.402       .  A
C711        C720   1.401       .  A
C711        C712   1.403       .  A
C712        C713   1.397       .  A
C712        H723   1.083       .  S
C713        C714   1.402       .  A
C713        H724   1.084       .  S
C714        C715   1.399       .  A
C715        C716   1.402       .  A
C715        H725   1.085       .  S
C716        C717   1.402       .  A
C717        H726   1.085       .  S
C718        C719   1.405       .  A
C718        H727   1.084       .  S
C719        C720   1.405       .  A
C720        H728   1.084       .  S
C729        C730   1.398       .  A
C729        C734   1.403       .  A
C729        H745   1.083       .  S
C730        C731   1.402       .  A
C730        H746   1.084       .  S
C731        C741   1.402       .  A
C731        C732   1.413       .  A
C732        C738   1.410       .  A
C732        C733   1.409       .  A
C733        C735   1.412       .  A
C733        C734   1.411       .  A
C734        C742   1.400       .  A
C735        C744   1.401       .  A
C735        C736   1.403       .  A
C736        C737   1.398       .  A
C736        H747   1.083       .  S
C737        C738   1.403       .  A
C737        H748   1.084       .  S
C738        C739   1.398       .  A
C739        C740   1.406       .  A
C739        H749   1.085       .  S
C740        C741   1.402       .  A
C741        H750   1.084       .  S
C742        C743   1.404       .  A
C742        H751   1.084       .  S
C743        C744   1.405       .  A
C744        H752   1.084       .  S
C753        C754   1.399       .  A
C753        C758   1.404       .  A
C753        H769   1.083       .  S
C754        C755   1.403       .  A
C754        H770   1.084       .  S
C755        C765   1.401       .  A
C755        C756   1.412       .  A
C756        C762   1.412       .  A
C756        C757   1.409       .  A
C757        C759   1.411       .  A
C757        C758   1.412       .  A
C758        C766   1.402       .  A
C759        C768   1.398       .  A
C759        C760   1.402       .  A
C760        C761   1.396       .  A
C760        H771   1.083       .  S
C761        C762   1.402       .  A
C761        H772   1.084       .  S
C762        C763   1.398       .  A
C763        C764   1.402       .  A
C763        H773   1.085       .  S
C764        C765   1.403       .  A
C765        H774   1.085       .  S
C766        C767   1.405       .  A
C766        H775   1.084       .  S
C767        C768   1.403       .  A
C768        H776   1.084       .  S
C777        C778   1.399       .  A
C777        C782   1.403       .  A
C777        H793   1.084       .  S
C778        C779   1.404       .  A
C778        H794   1.083       .  S
C779        C789   1.404       .  A
C779        C780   1.413       .  A
C780        C786   1.411       .  A
C780        C781   1.410       .  A
C781        C783   1.413       .  A
C781        C782   1.412       .  A
C782        C790   1.401       .  A
C783        C792   1.399       .  A
C783        C784   1.402       .  A
C784        C785   1.397       .  A
C784        H795   1.084       .  S
C785        C786   1.403       .  A
C785        H796   1.084       .  S
C786        C787   1.398       .  A
C787        C788   1.404       .  A
C787        H797   1.084       .  S
C788        C789   1.406       .  A
C789        H798   1.084       .  S
C790        C791   1.403       .  A
C790        H799   1.085       .  S
C791        C792   1.402       .  A
C792        H800   1.085       .  S
C801        C802   1.401       .  A
C801        C806   1.404       .  A
C801        H817   1.083       .  S
C802        C803   1.404       .  A
C802        H818   1.084       .  S
C803        C813   1.406       .  A
C803        C804   1.412   1_554  A
C804        C810   1.412       .  A
C804        C805   1.415       .  A
C805        C807   1.412       .  A
C805        C806   1.412   1_556  A
C806        C814   1.406       .  A
C807        C816   1.405       .  A
C807        C808   1.404       .  A
C808        C809   1.400       .  A
C808        H819   1.083       .  S
C809        C810   1.404       .  A
C809        H820   1.083       .  S
C810        C811   1.406       .  A
C811        C812   1.405       .  A
C811        H821   1.084       .  S
C812        C813   1.406   1_556  A
C813        H822   1.084       .  S
C814        C815   1.408       .  A
C814        H823   1.084       .  S
C815        C816   1.407   1_554  A
C816        H824   1.084       .  S
C825        C826   1.400       .  A
C825        C830   1.403       .  A
C825        H841   1.084       .  S
C826        C827   1.404       .  A
C826        H842   1.083       .  S
C827        C837   1.405       .  A
C827        C828   1.412       .  A
C828        C834   1.411       .  A
C828        C829   1.414       .  A
C829        C831   1.412       .  A
C829        C830   1.412       .  A
C830        C838   1.404       .  A
C831        C840   1.405       .  A
C831        C832   1.404       .  A
C832        C833   1.400       .  A
C832        H843   1.083       .  S
C833        C834   1.404       .  A
C833        H844   1.083       .  S
C834        C835   1.405       .  A
C835        C836   1.408       .  A
C835        H845   1.084       .  S
C836        C837   1.407       .  A
C837        H846   1.084       .  S
C838        C839   1.404       .  A
C838        H847   1.085       .  S
C839        C840   1.405       .  A
C840        H848   1.084       .  S
C849        C850   1.399       .  A
C849        C854   1.403       .  A
C849        H865   1.084       .  S
C850        C851   1.404       .  A
C850        H866   1.083       .  S
C851        C861   1.403       .  A
C851        C852   1.412   1_565  A
C852        C858   1.412       .  A
C852        C853   1.410       .  A
C853        C855   1.412       .  A
C853        C854   1.413   1_545  A
C854        C862   1.402       .  A
C855        C864   1.398       .  A
C855        C856   1.402       .  A
C856        C857   1.397       .  A
C856        H867   1.084       .  S
C857        C858   1.403       .  A
C857        H868   1.084       .  S
C858        C859   1.400       .  A
C859        C860   1.404   1_545  A
C859        H869   1.084       .  S
C860        C861   1.406       .  A
C861        H870   1.084       .  S
C862        C863   1.403   1_565  A
C862        H871   1.085       .  S
C863        C864   1.403       .  A
C864        H872   1.085       .  S
C873        C874   1.397       .  A
C873        C878   1.402       .  A
C873        H889   1.084       .  S
C874        C875   1.403       .  A
C874        H890   1.084       .  S
C875        C885   1.400       .  A
C875        C876   1.412       .  A
C876        C882   1.412       .  A
C876        C877   1.409       .  A
C877        C879   1.412       .  A
C877        C878   1.412       .  A
C878        C886   1.399       .  A
C879        C888   1.401       .  A
C879        C880   1.403   1_565  A
C880        C881   1.399       .  A
C880        H891   1.084       .  S
C881        C882   1.404   1_545  A
C881        H892   1.083       .  S
C882        C883   1.402   1_565  A
C883        C884   1.405   1_545  A
C883        H893   1.084       .  S
C884        C885   1.404       .  A
C885        H894   1.084       .  S
C886        C887   1.401       .  A
C886        H895   1.085       .  S
C887        C888   1.402       .  A
C888        H896   1.085   1_565  S
C897        C898   1.397       .  A
C897        C902   1.403       .  A
C897        H913   1.084       .  S
C898        C899   1.402       .  A
C898        H914   1.084       .  S
C899        C909   1.399       .  A
C899        C900   1.412       .  A
C900        C906   1.412       .  A
C900        C901   1.410       .  A
C901        C903   1.413       .  A
C901        C902   1.411       .  A
C902        C910   1.398       .  A
C903        C912   1.403       .  A
C903        C904   1.403       .  A
C904        C905   1.399       .  A
C904        H915   1.084   1_565  S
C905        C906   1.404       .  A
C905        H916   1.083   1_565  S
C906        C907   1.403       .  A
C907        C908   1.405       .  A
C907        H917   1.084   1_565  S
C908        C909   1.404       .  A
C909        H918   1.084       .  S
C910        C911   1.404       .  A
C910        H919   1.085       .  S
C911        C912   1.404       .  A
C912        H920   1.085       .  S
C921        C922   1.396       .  A
C921        C926   1.402       .  A
C921        H937   1.084       .  S
C922        C923   1.402       .  A
C922        H938   1.084       .  S
C923        C933   1.399       .  A
C923        C924   1.412   1_545  A
C924        C930   1.411       .  A
C924        C925   1.410       .  A
C925        C927   1.413       .  A
C925        C926   1.411   1_565  A
C926        C934   1.397       .  A
C927        C936   1.405       .  A
C927        C928   1.404       .  A
C928        C929   1.400       .  A
C928        H939   1.084       .  S
C929        C930   1.404       .  A
C929        H940   1.083       .  S
C930        C931   1.404       .  A
C931        C932   1.406       .  A
C931        H941   1.084       .  S
C932        C933   1.404   1_565  A
C933        H942   1.084       .  S
C934        C935   1.404   1_545  A
C934        H943   1.085       .  S
C935        C936   1.404       .  A
C936        H944   1.085       .  S
C945        C946   1.402       .  A
C945        C950   1.405       .  A
C945        H961   1.084       .  S
C946        C947   1.405       .  A
C946        H962   1.083       .  S
C947        C957   1.410       .  A
C947        C948   1.413       .  A
C948        C954   1.410       .  A
C948        C949   1.414       .  A
C949        C951   1.413       .  A
C949        C950   1.411       .  A
C950        C958   1.406       .  A
C951        C960   1.403       .  A
C951        C952   1.402       .  A
C952        C953   1.397       .  A
C952        H963   1.083       .  S
C953        C954   1.403       .  A
C953        H964   1.083       .  S
C954        C955   1.400       .  A
C955        C956   1.406       .  A
C955        H965   1.084       .  S
C956        C957   1.408       .  A
C957        H966   1.084       .  S
C958        C959   1.407       .  A
C958        H967   1.084       .  S
C959        C960   1.402       .  A
C960        H968   1.084       .  S
C969        C970   1.397       .  A
C969        C974   1.403       .  A
C969        H985   1.083       .  S
C970        C971   1.402       .  A
C970        H986   1.084       .  S
C971        C981   1.399       .  A
C971        C972   1.412       .  A
C972        C978   1.412       .  A
C972        C973   1.410       .  A
C973        C975   1.412       .  A
C973        C974   1.411       .  A
C974        C982   1.398       .  A
C975        C984   1.404       .  A
C975        C976   1.404       .  A
C976        C977   1.400       .  A
C976        H987   1.083       .  S
C977        C978   1.403       .  A
C977        H988   1.084       .  S
C978        C979   1.402       .  A
C979        C980   1.404       .  A
C979        H989   1.084       .  S
C980        C981   1.404       .  A
C981        H990   1.085       .  S
C982        C983   1.404       .  A
C982        H991   1.084       .  S
C983        C984   1.406       .  A
C984        H992   1.084       .  S
C993        C994   1.400       .  A
C993        C998   1.404       .  A
C993       H1009   1.083       .  S
C994        C995   1.404       .  A
C994       H1010   1.083   1_545  S
C995       C1005   1.405       .  A
C995        C996   1.412       .  A
C996       C1002   1.412       .  A
C996        C997   1.414       .  A
C997        C999   1.411       .  A
C997        C998   1.412       .  A
C998       C1006   1.406       .  A
C999       C1008   1.404       .  A
C999       C1000   1.404       .  A
C1000      C1001   1.400       .  A
C1000      H1011   1.083       .  S
C1001      C1002   1.404       .  A
C1001      H1012   1.084       .  S
C1002      C1003   1.405       .  A
C1003      C1004   1.405       .  A
C1003      H1013   1.085       .  S
C1004      C1005   1.404       .  A
C1005      H1014   1.084   1_545  S
C1006      C1007   1.407       .  A
C1006      H1015   1.084       .  S
C1007      C1008   1.408       .  A
C1008      H1016   1.084       .  S
C1017      C1018   1.400       .  A
C1017      C1022   1.404       .  A
C1017      H1033   1.083       .  S
C1018      C1019   1.404       .  A
C1018      H1034   1.083   1_545  S
C1019      C1029   1.404       .  A
C1019      C1020   1.412       .  A
C1020      C1026   1.412       .  A
C1020      C1021   1.413       .  A
C1021      C1023   1.411       .  A
C1021      C1022   1.412       .  A
C1022      C1030   1.406       .  A
C1023      C1032   1.402       .  A
C1023      C1024   1.404       .  A
C1024      C1025   1.399       .  A
C1024      H1035   1.083       .  S
C1025      C1026   1.403       .  A
C1025      H1036   1.084       .  S
C1026      C1027   1.403       .  A
C1027      C1028   1.403       .  A
C1027      H1037   1.085       .  S
C1028      C1029   1.404       .  A
C1029      H1038   1.084   1_545  S
C1030      C1031   1.407       .  A
C1030      H1039   1.084       .  S
C1031      C1032   1.407       .  A
C1032      H1040   1.084       .  S
C1041      C1042   1.400       .  A
C1041      C1046   1.404       .  A
C1041      H1057   1.083       .  S
C1042      C1043   1.404       .  A
C1042      H1058   1.084       .  S
C1043      C1053   1.404       .  A
C1043      C1044   1.412       .  A
C1044      C1050   1.412       .  A
C1044      C1045   1.409       .  A
C1045      C1047   1.411       .  A
C1045      C1046   1.412       .  A
C1046      C1054   1.404       .  A
C1047      C1056   1.396       .  A
C1047      C1048   1.401       .  A
C1048      C1049   1.395       .  A
C1048      H1059   1.084       .  S
C1049      C1050   1.402       .  A
C1049      H1060   1.084       .  S
C1050      C1051   1.397       .  A
C1051      C1052   1.401       .  A
C1051      H1061   1.085       .  S
C1052      C1053   1.405       .  A
C1053      H1062   1.085       .  S
C1054      C1055   1.406       .  A
C1054      H1063   1.084       .  S
C1055      C1056   1.401       .  A
C1056      H1064   1.085       .  S
C1065      C1066   1.398       .  A
C1065      C1070   1.403       .  A
C1065      H1081   1.083       .  S
C1066      C1067   1.403       .  A
C1066      H1082   1.084       .  S
C1067      C1077   1.400       .  A
C1067      C1068   1.412       .  A
C1068      C1074   1.413       .  A
C1068      C1069   1.411       .  A
C1069      C1071   1.411       .  A
C1069      C1070   1.412       .  A
C1070      C1078   1.403       .  A
C1071      C1080   1.403       .  A
C1071      C1072   1.404       .  A
C1072      C1073   1.399       .  A
C1072      H1083   1.083       .  S
C1073      C1074   1.403       .  A
C1073      H1084   1.084       .  S
C1074      C1075   1.403       .  A
C1075      C1076   1.403       .  A
C1075      H1085   1.084       .  S
C1076      C1077   1.403       .  A
C1077      H1086   1.085       .  S
C1078      C1079   1.406       .  A
C1078      H1087   1.084       .  S
C1079      C1080   1.407       .  A
C1080      H1088   1.084       .  S
C1089      C1090   1.399       .  A
C1089      C1094   1.403       .  A
C1089      H1105   1.084       .  S
C1090      C1091   1.404       .  A
C1090      H1106   1.083       .  S
C1091      C1101   1.403       .  A
C1091      C1092   1.412       .  A
C1092      C1098   1.411       .  A
C1092      C1093   1.409       .  A
C1093      C1095   1.412       .  A
C1093      C1094   1.412       .  A
C1094      C1102   1.401       .  A
C1095      C1104   1.399       .  A
C1095      C1096   1.402       .  A
C1096      C1097   1.397       .  A
C1096      H1107   1.084       .  S
C1097      C1098   1.403       .  A
C1097      H1108   1.083       .  S
C1098      C1099   1.399       .  A
C1099      C1100   1.404       .  A
C1099      H1109   1.084       .  S
C1100      C1101   1.405       .  A
C1101      H1110   1.084       .  S
C1102      C1103   1.405       .  A
C1102      H1111   1.085       .  S
C1103      C1104   1.403       .  A
C1104      H1112   1.085       .  S
C1113      C1114   1.398       .  A
C1113      C1118   1.403       .  A
C1113      H1129   1.084       .  S
C1114      C1115   1.403       .  A
C1114      H1130   1.083       .  S
C1115      C1125   1.402       .  A
C1115      C1116   1.412       .  A
C1116      C1122   1.411       .  A
C1116      C1117   1.410       .  A
C1117      C1119   1.413       .  A
C1117      C1118   1.411       .  A
C1118      C1126   1.400       .  A
C1119      C1128   1.402       .  A
C1119      C1120   1.403       .  A
C1120      C1121   1.398       .  A
C1120      H1131   1.084       .  S
C1121      C1122   1.403       .  A
C1121      H1132   1.083       .  S
C1122      C1123   1.400       .  A
C1123      C1124   1.405       .  A
C1123      H1133   1.084       .  S
C1124      C1125   1.404       .  A
C1125      H1134   1.084       .  S
C1126      C1127   1.406       .  A
C1126      H1135   1.085       .  S
C1127      C1128   1.403       .  A
C1128      H1136   1.084       .  S
C1137      C1138   1.398       .  A
C1137      C1142   1.403       .  A
C1137      H1153   1.084       .  S
C1138      C1139   1.403       .  A
C1138      H1154   1.084       .  S
C1139      C1149   1.400       .  A
C1139      C1140   1.411       .  A
C1140      C1146   1.413       .  A
C1140      C1141   1.412       .  A
C1141      C1143   1.411       .  A
C1141      C1142   1.412       .  A
C1142      C1150   1.402       .  A
C1143      C1152   1.405       .  A
C1143      C1144   1.404       .  A
C1144      C1145   1.401       .  A
C1144      H1155   1.083       .  S
C1145      C1146   1.404       .  A
C1145      H1156   1.084       .  S
C1146      C1147   1.406       .  A
C1147      C1148   1.405       .  A
C1147      H1157   1.084       .  S
C1148      C1149   1.404       .  A
C1149      H1158   1.085       .  S
C1150      C1151   1.405       .  A
C1150      H1159   1.084       .  S
C1151      C1152   1.408       .  A
C1152      H1160   1.084       .  S
C1161      C1162   1.398       .  A
C1161      C1166   1.403       .  A
C1161      H1177   1.083       .  S
C1162      C1163   1.403       .  A
C1162      H1178   1.084       .  S
C1163      C1173   1.403       .  A
C1163      C1164   1.413       .  A
C1164      C1170   1.411       .  A
C1164      C1165   1.411       .  A
C1165      C1167   1.412       .  A
C1165      C1166   1.411       .  A
C1166      C1174   1.402       .  A
C1167      C1176   1.404       .  A
C1167      C1168   1.404       .  A
C1168      C1169   1.399       .  A
C1168      H1179   1.083       .  S
C1169      C1170   1.403       .  A
C1169      H1180   1.084       .  S
C1170      C1171   1.401       .  A
C1171      C1172   1.405       .  A
C1171      H1181   1.085       .  S
C1172      C1173   1.403       .  A
C1173      H1182   1.085       .  S
C1174      C1175   1.405       .  A
C1174      H1183   1.084       .  S
C1175      C1176   1.406       .  A
C1176      H1184   1.084       .  S
C1185      C1186   1.401       .  A
C1185      C1190   1.404       .  A
C1185      H1201   1.083       .  S
C1186      C1187   1.404       .  A
C1186      H1202   1.084       .  S
C1187      C1197   1.405       .  A
C1187      C1188   1.412       .  A
C1188      C1194   1.412       .  A
C1188      C1189   1.414       .  A
C1189      C1191   1.411       .  A
C1189      C1190   1.412       .  A
C1190      C1198   1.407       .  A
C1191      C1200   1.405       .  A
C1191      C1192   1.404       .  A
C1192      C1193   1.399       .  A
C1192      H1203   1.083       .  S
C1193      C1194   1.403       .  A
C1193      H1204   1.084       .  S
C1194      C1195   1.403       .  A
C1195      C1196   1.403       .  A
C1195      H1205   1.085       .  S
C1196      C1197   1.406       .  A
C1197      H1206   1.085       .  S
C1198      C1199   1.408       .  A
C1198      H1207   1.084       .  S
C1199      C1200   1.408       .  A
C1200      H1208   1.084       .  S
C1209      C1210   1.403       .  A
C1209      C1214   1.406       .  A
C1209      H1225   1.083       .  S
C1210      C1211   1.405       .  A
C1210      H1226   1.083       .  S
C1211      C1221   1.410       .  A
C1211      C1212   1.413       .  A
C1212      C1218   1.412       .  A
C1212      C1213   1.416       .  A
C1213      C1215   1.412       .  A
C1213      C1214   1.411       .  A
C1214      C1222   1.409       .  A
C1215      C1224   1.403       .  A
C1215      C1216   1.403       .  A
C1216      C1217   1.398       .  A
C1216      H1227   1.083       .  S
C1217      C1218   1.403       .  A
C1217      H1228   1.084       .  S
C1218      C1219   1.402       .  A
C1219      C1220   1.404       .  A
C1219      H1229   1.085       .  S
C1220      C1221   1.408       .  A
C1221      H1230   1.084       .  S
C1222      C1223   1.411       .  A
C1222      H1231   1.084       .  S
C1223      C1224   1.405       .  A
C1224      H1232   1.084       .  S
C1233      C1234   1.398       .  A
C1233      C1238   1.403       .  A
C1233      H1249   1.084       .  S
C1234      C1235   1.403       .  A
C1234      H1250   1.084       .  S
C1235      C1245   1.401       .  A
C1235      C1236   1.412       .  A
C1236      C1242   1.411       .  A
C1236      C1237   1.410       .  A
C1237      C1239   1.413       .  A
C1237      C1238   1.411       .  A
C1238      C1246   1.400       .  A
C1239      C1248   1.402       .  A
C1239      C1240   1.403       .  A
C1240      C1241   1.399       .  A
C1240      H1251   1.084       .  S
C1241      C1242   1.403       .  A
C1241      H1252   1.083       .  S
C1242      C1243   1.402       .  A
C1243      C1244   1.405       .  A
C1243      H1253   1.084       .  S
C1244      C1245   1.404       .  A
C1245      H1254   1.084       .  S
C1246      C1247   1.405       .  A
C1246      H1255   1.085       .  S
C1247      C1248   1.403       .  A
C1248      H1256   1.085       .  S
C1257      C1258   1.401       .  A
C1257      C1262   1.404       .  A
C1257      H1273   1.084       .  S
C1258      C1259   1.404       .  A
C1258      H1274   1.083       .  S
C1259      C1269   1.407       .  A
C1259      C1260   1.411   1_556  A
C1260      C1266   1.412       .  A
C1260      C1261   1.417       .  A
C1261      C1263   1.412       .  A
C1261      C1262   1.412   1_554  A
C1262      C1270   1.407       .  A
C1263      C1272   1.409       .  A
C1263      C1264   1.405       .  A
C1264      C1265   1.402       .  A
C1264      H1275   1.083       .  S
C1265      C1266   1.405       .  A
C1265      H1276   1.083       .  S
C1266      C1267   1.409       .  A
C1267      C1268   1.409   1_554  A
C1267      H1277   1.084       .  S
C1268      C1269   1.409       .  A
C1269      H1278   1.084       .  S
C1270      C1271   1.407   1_556  A
C1270      H1279   1.084       .  S
C1271      C1272   1.408       .  A
C1272      H1280   1.084       .  S
C1281      C1282   1.396       .  A
C1281      C1286   1.402       .  A
C1281      H1297   1.084       .  S
C1282      C1283   1.403       .  A
C1282      H1298   1.084       .  S
C1283      C1293   1.396       .  A
C1283      C1284   1.410       .  A
C1284      C1290   1.413       .  A
C1284      C1285   1.411       .  A
C1285      C1287   1.411       .  A
C1285      C1286   1.412       .  A
C1286      C1294   1.399       .  A
C1287      C1296   1.405       .  A
C1287      C1288   1.405       .  A
C1288      C1289   1.401       .  A
C1288      H1299   1.083       .  S
C1289      C1290   1.404       .  A
C1289      H1300   1.084       .  S
C1290      C1291   1.407       .  A
C1291      C1292   1.405       .  A
C1291      H1301   1.084       .  S
C1292      C1293   1.406       .  A
C1293      H1302   1.085       .  S
C1294      C1295   1.404       .  A
C1294      H1303   1.084       .  S
C1295      C1296   1.407       .  A
C1296      H1304   1.084       .  S
C1305      C1306   1.401       .  A
C1305      C1310   1.404       .  A
C1305      H1321   1.084       .  S
C1306      C1307   1.404       .  A
C1306      H1322   1.083       .  S
C1307      C1317   1.405       .  A
C1307      C1308   1.412       .  A
C1308      C1314   1.412       .  A
C1308      C1309   1.412       .  A
C1309      C1311   1.411       .  A
C1309      C1310   1.413       .  A
C1310      C1318   1.406       .  A
C1311      C1320   1.399       .  A
C1311      C1312   1.403       .  A
C1312      C1313   1.397       .  A
C1312      H1323   1.084       .  S
C1313      C1314   1.403       .  A
C1313      H1324   1.084       .  S
C1314      C1315   1.401       .  A
C1315      C1316   1.405       .  A
C1315      H1325   1.084       .  S
C1316      C1317   1.407       .  A
C1317      H1326   1.084       .  S
C1318      C1319   1.405       .  A
C1318      H1327   1.085       .  S
C1319      C1320   1.405       .  A
C1320      H1328   1.085       .  S
C1329      C1330   1.399       .  A
C1329      C1334   1.404       .  A
C1329      H1345   1.083       .  S
C1330      C1331   1.403       .  A
C1330      H1346   1.084       .  S
C1331      C1341   1.402       .  A
C1331      C1332   1.413       .  A
C1332      C1338   1.412       .  A
C1332      C1333   1.410       .  A
C1333      C1335   1.412       .  A
C1333      C1334   1.411       .  A
C1334      C1342   1.401       .  A
C1335      C1344   1.402       .  A
C1335      C1336   1.403       .  A
C1336      C1337   1.398       .  A
C1336      H1347   1.084       .  S
C1337      C1338   1.403       .  A
C1337      H1348   1.084       .  S
C1338      C1339   1.400       .  A
C1339      C1340   1.402       .  A
C1339      H1349   1.085       .  S
C1340      C1341   1.403       .  A
C1341      H1350   1.085       .  S
C1342      C1343   1.406       .  A
C1342      H1351   1.084       .  S
C1343      C1344   1.405       .  A
C1344      H1352   1.084       .  S
C1353      C1354   1.402       .  A
C1353      C1358   1.404       .  A
C1353      H1369   1.083       .  S
C1354      C1355   1.405       .  A
C1354      H1370   1.083       .  S
C1355      C1365   1.408       .  A
C1355      C1356   1.412       .  A
C1356      C1362   1.411   1_556  A
C1356      C1357   1.415       .  A
C1357      C1359   1.412   1_556  A
C1357      C1358   1.412       .  A
C1358      C1366   1.407       .  A
C1359      C1368   1.404       .  A
C1359      C1360   1.404       .  A
C1360      C1361   1.400       .  A
C1360      H1371   1.084       .  S
C1361      C1362   1.404       .  A
C1361      H1372   1.083       .  S
C1362      C1363   1.405       .  A
C1363      C1364   1.408       .  A
C1363      H1373   1.084       .  S
C1364      C1365   1.409   1_554  A
C1365      H1374   1.084       .  S
C1366      C1367   1.405   1_556  A
C1366      H1375   1.084       .  S
C1367      C1368   1.406       .  A
C1368      H1376   1.085       .  S
C1377      C1378   1.401       .  A
C1377      C1382   1.404       .  A
C1377      H1393   1.083       .  S
C1378      C1379   1.404       .  A
C1378      H1394   1.083       .  S
C1379      C1389   1.405       .  A
C1379      C1380   1.411       .  A
C1380      C1386   1.412       .  A
C1380      C1381   1.415       .  A
C1381      C1383   1.411       .  A
C1381      C1382   1.413       .  A
C1382      C1390   1.407       .  A
C1383      C1392   1.404       .  A
C1383      C1384   1.404       .  A
C1384      C1385   1.399       .  A
C1384      H1395   1.084       .  S
C1385      C1386   1.404       .  A
C1385      H1396   1.083       .  S
C1386      C1387   1.405       .  A
C1387      C1388   1.406       .  A
C1387      H1397   1.084       .  S
C1388      C1389   1.408       .  A
C1389      H1398   1.084       .  S
C1390      C1391   1.406       .  A
C1390      H1399   1.084       .  S
C1391      C1392   1.406       .  A
C1392      H1400   1.085       .  S
C1401      C1402   1.401       .  A
C1401      C1406   1.404       .  A
C1401      H1417   1.083       .  S
C1402      C1403   1.404       .  A
C1402      H1418   1.083       .  S
C1403      C1413   1.405       .  A
C1403      C1404   1.412       .  A
C1404      C1410   1.412       .  A
C1404      C1405   1.414       .  A
C1405      C1407   1.411       .  A
C1405      C1406   1.412       .  A
C1406      C1414   1.406       .  A
C1407      C1416   1.404       .  A
C1407      C1408   1.404       .  A
C1408      C1409   1.399       .  A
C1408      H1419   1.083       .  S
C1409      C1410   1.403       .  A
C1409      H1420   1.084       .  S
C1410      C1411   1.404       .  A
C1411      C1412   1.404       .  A
C1411      H1421   1.085       .  S
C1412      C1413   1.405       .  A
C1413      H1422   1.084       .  S
C1414      C1415   1.408       .  A
C1414      H1423   1.084       .  S
C1415      C1416   1.406       .  A
C1416      H1424   1.084       .  S
C1425      C1426   1.397       .  A
C1425      C1430   1.403       .  A
C1425      H1441   1.084       .  S
C1426      C1427   1.403       .  A
C1426      H1442   1.083       .  S
C1427      C1437   1.400       .  A
C1427      C1428   1.412       .  A
C1428      C1434   1.412       .  A
C1428      C1429   1.411       .  A
C1429      C1431   1.412       .  A
C1429      C1430   1.411       .  A
C1430      C1438   1.400       .  A
C1431      C1440   1.405       .  A
C1431      C1432   1.404       .  A
C1432      C1433   1.400       .  A
C1432      H1443   1.083       .  S
C1433      C1434   1.404       .  A
C1433      H1444   1.084       .  S
C1434      C1435   1.404       .  A
C1435      C1436   1.404       .  A
C1435      H1445   1.085       .  S
C1436      C1437   1.404       .  A
C1437      H1446   1.085       .  S
C1438      C1439   1.404       .  A
C1438      H1447   1.084       .  S
C1439      C1440   1.406       .  A
C1440      H1448   1.084       .  S
C1449      C1450   1.397       .  A
C1449      C1454   1.403       .  A
C1449      H1465   1.084       .  S
C1450      C1451   1.403       .  A
C1450      H1466   1.084       .  S
C1451      C1461   1.398       .  A
C1451      C1452   1.411       .  A
C1452      C1458   1.413       .  A
C1452      C1453   1.409       .  A
C1453      C1455   1.412       .  A
C1453      C1454   1.412       .  A
C1454      C1462   1.399       .  A
C1455      C1464   1.401       .  A
C1455      C1456   1.403       .  A
C1456      C1457   1.398       .  A
C1456      H1467   1.083       .  S
C1457      C1458   1.402       .  A
C1457      H1468   1.084       .  S
C1458      C1459   1.401       .  A
C1459      C1460   1.402       .  A
C1459      H1469   1.085       .  S
C1460      C1461   1.404       .  A
C1461      H1470   1.085       .  S
C1462      C1463   1.405       .  A
C1462      H1471   1.084       .  S
C1463      C1464   1.405       .  A
C1464      H1472   1.084       .  S
C1473      C1474   1.401       .  A
C1473      C1478   1.404       .  A
C1473      H1489   1.083       .  S
C1474      C1475   1.404       .  A
C1474      H1490   1.084       .  S
C1475      C1485   1.406       .  A
C1475      C1476   1.413       .  A
C1476      C1482   1.411       .  A
C1476      C1477   1.410       .  A
C1477      C1479   1.411       .  A
C1477      C1478   1.412       .  A
C1478      C1486   1.405       .  A
C1479      C1488   1.398       .  A
C1479      C1480   1.402       .  A
C1480      C1481   1.396       .  A
C1480      H1491   1.084       .  S
C1481      C1482   1.402       .  A
C1481      H1492   1.084       .  S
C1482      C1483   1.397       .  A
C1483      C1484   1.405       .  A
C1483      H1493   1.085       .  S
C1484      C1485   1.405       .  A
C1485      H1494   1.084       .  S
C1486      C1487   1.407       .  A
C1486      H1495   1.084       .  S
C1487      C1488   1.403       .  A
C1488      H1496   1.084       .  S
C1497      C1498   1.398       .  A
C1497      C1502   1.403       .  A
C1497      H1513   1.084       .  S
C1498      C1499   1.403       .  A
C1498      H1514   1.083       .  S
C1499      C1509   1.401       .  A
C1499      C1500   1.412       .  A
C1500      C1506   1.411       .  A
C1500      C1501   1.407       .  A
C1501      C1503   1.413       .  A
C1501      C1502   1.412       .  A
C1502      C1510   1.400       .  A
C1503      C1512   1.397       .  A
C1503      C1504   1.402       .  A
C1504      C1505   1.396       .  A
C1504      H1515   1.084       .  S
C1505      C1506   1.402       .  A
C1505      H1516   1.084       .  S
C1506      C1507   1.398       .  A
C1507      C1508   1.403       .  A
C1507      H1517   1.085       .  S
C1508      C1509   1.404       .  A
C1509      H1518   1.084       .  S
C1510      C1511   1.401       .  A
C1510      H1519   1.085       .  S
C1511      C1512   1.400       .  A
C1512      H1520   1.085       .  S
C1521      C1522   1.402       .  A
C1521      C1526   1.405       .  A
C1521      H1537   1.083       .  S
C1522      C1523   1.405       .  A
C1522      H1538   1.083   1_545  S
C1523      C1533   1.407       .  A
C1523      C1524   1.412       .  A
C1524      C1530   1.413   1_554  A
C1524      C1525   1.415       .  A
C1525      C1527   1.411   1_554  A
C1525      C1526   1.413       .  A
C1526      C1534   1.410       .  A
C1527      C1536   1.403       .  A
C1527      C1528   1.404       .  A
C1528      C1529   1.399       .  A
C1528      H1539   1.083       .  S
C1529      C1530   1.403       .  A
C1529      H1540   1.084       .  S
C1530      C1531   1.404       .  A
C1531      C1532   1.403       .  A
C1531      H1541   1.085       .  S
C1532      C1533   1.406   1_556  A
C1533      H1542   1.084   1_545  S
C1534      C1535   1.409       .  A
C1534      H1543   1.084       .  S
C1535      C1536   1.407   1_554  A
C1536      H1544   1.084       .  S
C1545      C1546   1.401       .  A
C1545      C1550   1.405       .  A
C1545      H1561   1.083       .  S
C1546      C1547   1.404       .  A
C1546      H1562   1.084       .  S
C1547      C1557   1.405       .  A
C1547      C1548   1.412   1_554  A
C1548      C1554   1.413       .  A
C1548      C1549   1.414       .  A
C1549      C1551   1.412       .  A
C1549      C1550   1.411   1_556  A
C1550      C1558   1.406       .  A
C1551      C1560   1.405       .  A
C1551      C1552   1.404       .  A
C1552      C1553   1.399       .  A
C1552      H1563   1.083       .  S
C1553      C1554   1.403       .  A
C1553      H1564   1.083   1_545  S
C1554      C1555   1.405       .  A
C1555      C1556   1.404   1_556  A
C1555      H1565   1.084   1_545  S
C1556      C1557   1.405       .  A
C1557      H1566   1.084       .  S
C1558      C1559   1.409       .  A
C1558      H1567   1.084       .  S
C1559      C1560   1.406   1_554  A
C1560      H1568   1.084       .  S
C1569      C1570   1.400       .  A
C1569      C1574   1.404       .  A
C1569      H1585   1.083       .  S
C1570      C1571   1.404       .  A
C1570      H1586   1.083       .  S
C1571      C1581   1.406       .  A
C1571      C1572   1.413       .  A
C1572      C1578   1.410       .  A
C1572      C1573   1.414       .  A
C1573      C1575   1.413       .  A
C1573      C1574   1.411       .  A
C1574      C1582   1.403       .  A
C1575      C1584   1.406       .  A
C1575      C1576   1.404       .  A
C1576      C1577   1.400       .  A
C1576      H1587   1.084       .  S
C1577      C1578   1.404       .  A
C1577      H1588   1.083       .  S
C1578      C1579   1.403       .  A
C1579      C1580   1.408       .  A
C1579      H1589   1.084       .  S
C1580      C1581   1.406       .  A
C1581      H1590   1.084       .  S
C1582      C1583   1.405       .  A
C1582      H1591   1.084       .  S
C1583      C1584   1.405       .  A
C1584      H1592   1.084       .  S
C1593      C1594   1.400       .  A
C1593      C1598   1.404       .  A
C1593      H1609   1.083       .  S
C1594      C1595   1.404       .  A
C1594      H1610   1.083       .  S
C1595      C1605   1.406       .  A
C1595      C1596   1.412       .  A
C1596      C1602   1.411       .  A
C1596      C1597   1.413       .  A
C1597      C1599   1.413       .  A
C1597      C1598   1.412       .  A
C1598      C1606   1.405       .  A
C1599      C1608   1.402       .  A
C1599      C1600   1.403       .  A
C1600      C1601   1.398       .  A
C1600      H1611   1.084       .  S
C1601      C1602   1.403       .  A
C1601      H1612   1.083       .  S
C1602      C1603   1.402       .  A
C1603      C1604   1.407       .  A
C1603      H1613   1.084       .  S
C1604      C1605   1.407       .  A
C1605      H1614   1.084       .  S
C1606      C1607   1.404       .  A
C1606      H1615   1.084       .  S
C1607      C1608   1.403       .  A
C1608      H1616   1.085       .  S
C1617      C1618   1.400       .  A
C1617      C1622   1.404       .  A
C1617      H1633   1.083       .  S
C1618      C1619   1.403       .  A
C1618      H1634   1.084       .  S
C1619      C1629   1.405       .  A
C1619      C1620   1.413       .  A
C1620      C1626   1.412       .  A
C1620      C1621   1.414       .  A
C1621      C1623   1.411       .  A
C1621      C1622   1.412       .  A
C1622      C1630   1.405       .  A
C1623      C1632   1.404       .  A
C1623      C1624   1.404       .  A
C1624      C1625   1.399       .  A
C1624      H1635   1.083       .  S
C1625      C1626   1.404       .  A
C1625      H1636   1.084       .  S
C1626      C1627   1.404       .  A
C1627      C1628   1.405       .  A
C1627      H1637   1.084       .  S
C1628      C1629   1.404       .  A
C1629      H1638   1.084       .  S
C1630      C1631   1.407       .  A
C1630      H1639   1.084       .  S
C1631      C1632   1.407       .  A
C1632      H1640   1.084       .  S
C1641      C1642   1.400       .  A
C1641      C1646   1.404       .  A
C1641      H1657   1.083       .  S
C1642      C1643   1.404       .  A
C1642      H1658   1.084       .  S
C1643      C1653   1.405       .  A
C1643      C1644   1.412       .  A
C1644      C1650   1.412       .  A
C1644      C1645   1.414       .  A
C1645      C1647   1.411       .  A
C1645      C1646   1.412       .  A
C1646      C1654   1.406       .  A
C1647      C1656   1.404       .  A
C1647      C1648   1.404       .  A
C1648      C1649   1.400       .  A
C1648      H1659   1.083       .  S
C1649      C1650   1.404       .  A
C1649      H1660   1.083       .  S
C1650      C1651   1.405       .  A
C1651      C1652   1.404       .  A
C1651      H1661   1.084       .  S
C1652      C1653   1.404       .  A
C1653      H1662   1.085       .  S
C1654      C1655   1.407       .  A
C1654      H1663   1.084       .  S
C1655      C1656   1.408       .  A
C1656      H1664   1.084       .  S
C1665      C1666   1.398       .  A
C1665      C1670   1.403       .  A
C1665      H1681   1.083       .  S
C1666      C1667   1.403       .  A
C1666      H1682   1.084       .  S
C1667      C1677   1.401       .  A
C1667      C1668   1.412       .  A
C1668      C1674   1.413       .  A
C1668      C1669   1.412       .  A
C1669      C1671   1.412       .  A
C1669      C1670   1.412       .  A
C1670      C1678   1.401       .  A
C1671      C1680   1.405       .  A
C1671      C1672   1.404       .  A
C1672      C1673   1.400       .  A
C1672      H1683   1.083       .  S
C1673      C1674   1.404       .  A
C1673      H1684   1.084       .  S
C1674      C1675   1.405       .  A
C1675      C1676   1.404       .  A
C1675      H1685   1.084       .  S
C1676      C1677   1.404       .  A
C1677      H1686   1.085       .  S
C1678      C1679   1.405       .  A
C1678      H1687   1.084       .  S
C1679      C1680   1.407       .  A
C1680      H1688   1.084       .  S
C1689      C1690   1.399       .  A
C1689      C1694   1.404       .  A
C1689      H1705   1.083       .  S
C1690      C1691   1.404       .  A
C1690      H1706   1.084       .  S
C1691      C1701   1.403       .  A
C1691      C1692   1.412       .  A
C1692      C1698   1.413       .  A
C1692      C1693   1.411       .  A
C1693      C1695   1.411       .  A
C1693      C1694   1.412       .  A
C1694      C1702   1.403       .  A
C1695      C1704   1.401       .  A
C1695      C1696   1.403       .  A
C1696      C1697   1.398       .  A
C1696      H1707   1.083       .  S
C1697      C1698   1.403       .  A
C1697      H1708   1.084       .  S
C1698      C1699   1.402       .  A
C1699      C1700   1.403       .  A
C1699      H1709   1.085       .  S
C1700      C1701   1.405       .  A
C1701      H1710   1.085       .  S
C1702      C1703   1.406       .  A
C1702      H1711   1.084       .  S
C1703      C1704   1.404       .  A
C1704      H1712   1.084       .  S
C1713      C1714   1.400       .  A
C1713      C1718   1.404       .  A
C1713      H1729   1.083       .  S
C1714      C1715   1.403       .  A
C1714      H1730   1.084       .  S
C1715      C1725   1.406       .  A
C1715      C1716   1.413       .  A
C1716      C1722   1.411       .  A
C1716      C1717   1.416       .  A
C1717      C1719   1.412       .  A
C1717      C1718   1.411       .  A
C1718      C1726   1.406       .  A
C1719      C1728   1.408       .  A
C1719      C1720   1.405       .  A
C1720      C1721   1.402       .  A
C1720      H1731   1.083       .  S
C1721      C1722   1.405       .  A
C1721      H1732   1.083       .  S
C1722      C1723   1.407       .  A
C1723      C1724   1.409       .  A
C1723      H1733   1.084       .  S
C1724      C1725   1.404       .  A
C1725      H1734   1.085       .  S
C1726      C1727   1.407       .  A
C1726      H1735   1.084       .  S
C1727      C1728   1.410       .  A
C1728      H1736   1.084       .  S
C1737      C1738   1.401       .  A
C1737      C1742   1.404       .  A
C1737      H1753   1.083       .  S
C1738      C1739   1.404       .  A
C1738      H1754   1.084       .  S
C1739      C1749   1.406       .  A
C1739      C1740   1.412       .  A
C1740      C1746   1.413       .  A
C1740      C1741   1.415       .  A
C1741      C1743   1.411       .  A
C1741      C1742   1.412       .  A
C1742      C1750   1.408       .  A
C1743      C1752   1.404       .  A
C1743      C1744   1.404       .  A
C1744      C1745   1.399       .  A
C1744      H1755   1.083       .  S
C1745      C1746   1.403       .  A
C1745      H1756   1.083       .  S
C1746      C1747   1.405       .  A
C1747      C1748   1.405       .  A
C1747      H1757   1.084       .  S
C1748      C1749   1.405       .  A
C1749      H1758   1.085       .  S
C1750      C1751   1.408       .  A
C1750      H1759   1.084       .  S
C1751      C1752   1.407       .  A
C1752      H1760   1.084       .  S
C1761      C1762   1.399       .  A
C1761      C1766   1.404       .  A
C1761      H1777   1.083       .  S
C1762      C1763   1.403       .  A
C1762      H1778   1.084       .  S
C1763      C1773   1.403       .  A
C1763      C1764   1.413       .  A
C1764      C1770   1.412       .  A
C1764      C1765   1.409       .  A
C1765      C1767   1.411       .  A
C1765      C1766   1.412       .  A
C1766      C1774   1.403       .  A
C1767      C1776   1.398       .  A
C1767      C1768   1.402       .  A
C1768      C1769   1.396       .  A
C1768      H1779   1.083       .  S
C1769      C1770   1.402       .  A
C1769      H1780   1.084       .  S
C1770      C1771   1.398       .  A
C1771      C1772   1.403       .  A
C1771      H1781   1.085       .  S
C1772      C1773   1.402       .  A
C1773      H1782   1.084       .  S
C1774      C1775   1.405       .  A
C1774      H1783   1.084       .  S
C1775      C1776   1.404       .  A
C1776      H1784   1.084       .  S
C1785      C1786   1.398       .  A
C1785      C1790   1.403       .  A
C1785      H1801   1.083       .  S
C1786      C1787   1.403       .  A
C1786      H1802   1.084       .  S
C1787      C1797   1.401       .  A
C1787      C1788   1.412       .  A
C1788      C1794   1.413       .  A
C1788      C1789   1.411       .  A
C1789      C1791   1.412       .  A
C1789      C1790   1.412       .  A
C1790      C1798   1.402       .  A
C1791      C1800   1.402       .  A
C1791      C1792   1.403       .  A
C1792      C1793   1.399       .  A
C1792      H1803   1.083       .  S
C1793      C1794   1.403       .  A
C1793      H1804   1.084       .  S
C1794      C1795   1.403       .  A
C1795      C1796   1.403       .  A
C1795      H1805   1.085       .  S
C1796      C1797   1.403       .  A
C1797      H1806   1.085       .  S
C1798      C1799   1.404       .  A
C1798      H1807   1.084       .  S
C1799      C1800   1.405       .  A
C1800      H1808   1.084       .  S
C1809      C1810   1.402       .  A
C1809      C1814   1.405       .  A
C1809      H1825   1.083       .  S
C1810      C1811   1.404       .  A
C1810      H1826   1.083       .  S
C1811      C1821   1.411       .  A
C1811      C1812   1.414       .  A
C1812      C1818   1.411   1_556  A
C1812      C1813   1.417       .  A
C1813      C1815   1.412   1_556  A
C1813      C1814   1.411       .  A
C1814      C1822   1.408       .  A
C1815      C1824   1.408       .  A
C1815      C1816   1.404       .  A
C1816      C1817   1.401       .  A
C1816      H1827   1.083       .  S
C1817      C1818   1.404       .  A
C1817      H1828   1.084       .  S
C1818      C1819   1.405       .  A
C1819      C1820   1.408       .  A
C1819      H1829   1.085       .  S
C1820      C1821   1.407   1_554  A
C1821      H1830   1.084       .  S
C1822      C1823   1.409       .  A
C1822      H1831   1.084       .  S
C1823      C1824   1.409   1_556  A
C1824      H1832   1.084       .  S
C1833      C1834   1.401       .  A
C1833      C1838   1.404       .  A
C1833      H1849   1.083       .  S
C1834      C1835   1.404       .  A
C1834      H1850   1.083       .  S
C1835      C1845   1.408       .  A
C1835      C1836   1.413       .  A
C1836      C1842   1.411   1_554  A
C1836      C1837   1.415       .  A
C1837      C1839   1.413   1_554  A
C1837      C1838   1.411       .  A
C1838      C1846   1.405       .  A
C1839      C1848   1.407       .  A
C1839      C1840   1.404       .  A
C1840      C1841   1.401       .  A
C1840      H1851   1.084       .  S
C1841      C1842   1.404       .  A
C1841      H1852   1.083       .  S
C1842      C1843   1.405       .  A
C1843      C1844   1.409       .  A
C1843      H1853   1.084       .  S
C1844      C1845   1.408   1_556  A
C1845      H1854   1.084       .  S
C1846      C1847   1.406   1_554  A
C1846      H1855   1.084       .  S
C1847      C1848   1.405       .  A
C1848      H1856   1.084       .  S
C1857      C1858   1.400       .  A
C1857      C1862   1.404       .  A
C1857      H1873   1.083       .  S
C1858      C1859   1.403       .  A
C1858      H1874   1.083       .  S
C1859      C1869   1.405       .  A
C1859      C1860   1.413       .  A
C1860      C1866   1.412       .  A
C1860      C1861   1.415       .  A
C1861      C1863   1.412       .  A
C1861      C1862   1.411       .  A
C1862      C1870   1.405       .  A
C1863      C1872   1.407       .  A
C1863      C1864   1.404       .  A
C1864      C1865   1.401       .  A
C1864      H1875   1.083       .  S
C1865      C1866   1.404       .  A
C1865      H1876   1.084       .  S
C1866      C1867   1.406       .  A
C1867      C1868   1.406       .  A
C1867      H1877   1.085       .  S
C1868      C1869   1.404       .  A
C1869      H1878   1.084       .  S
C1870      C1871   1.408       .  A
C1870      H1879   1.084       .  S
C1871      C1872   1.407       .  A
C1872      H1880   1.084       .  S
C1881      C1882   1.401       .  A
C1881      C1886   1.404       .  A
C1881      H1897   1.083       .  S
C1882      C1883   1.404       .  A
C1882      H1898   1.084       .  S
C1883      C1893   1.407       .  A
C1883      C1884   1.412       .  A
C1884      C1890   1.412       .  A
C1884      C1885   1.416       .  A
C1885      C1887   1.412       .  A
C1885      C1886   1.412       .  A
C1886      C1894   1.407       .  A
C1887      C1896   1.407       .  A
C1887      C1888   1.405       .  A
C1888      C1889   1.401       .  A
C1888      H1899   1.083       .  S
C1889      C1890   1.404       .  A
C1889      H1900   1.083       .  S
C1890      C1891   1.406       .  A
C1891      C1892   1.406       .  A
C1891      H1901   1.084       .  S
C1892      C1893   1.405       .  A
C1893      H1902   1.084       .  S
C1894      C1895   1.408       .  A
C1894      H1903   1.084       .  S
C1895      C1896   1.409       .  A
C1896      H1904   1.084       .  S
C1905      C1906   1.398       .  A
C1905      C1910   1.403       .  A
C1905      H1921   1.083       .  S
C1906      C1907   1.403       .  A
C1906      H1922   1.084       .  S
C1907      C1917   1.400       .  A
C1907      C1908   1.412       .  A
C1908      C1914   1.412       .  A
C1908      C1909   1.410       .  A
C1909      C1911   1.412       .  A
C1909      C1910   1.412       .  A
C1910      C1918   1.401       .  A
C1911      C1920   1.401       .  A
C1911      C1912   1.403       .  A
C1912      C1913   1.398       .  A
C1912      H1923   1.083       .  S
C1913      C1914   1.403       .  A
C1913      H1924   1.084       .  S
C1914      C1915   1.401       .  A
C1915      C1916   1.405       .  A
C1915      H1925   1.085       .  S
C1916      C1917   1.403       .  A
C1917      H1926   1.085       .  S
C1918      C1919   1.404       .  A
C1918      H1927   1.084       .  S
C1919      C1920   1.405       .  A
C1920      H1928   1.084       .  S
C1929      C1930   1.400       .  A
C1929      C1934   1.404       .  A
C1929      H1945   1.083       .  S
C1930      C1931   1.404       .  A
C1930      H1946   1.084       .  S
C1931      C1941   1.405       .  A
C1931      C1932   1.412       .  A
C1932      C1938   1.413       .  A
C1932      C1933   1.414       .  A
C1933      C1935   1.411       .  A
C1933      C1934   1.412       .  A
C1934      C1942   1.407       .  A
C1935      C1944   1.403       .  A
C1935      C1936   1.404       .  A
C1936      C1937   1.399       .  A
C1936      H1947   1.083       .  S
C1937      C1938   1.403       .  A
C1937      H1948   1.083       .  S
C1938      C1939   1.404       .  A
C1939      C1940   1.404       .  A
C1939      H1949   1.084       .  S
C1940      C1941   1.405       .  A
C1941      H1950   1.085       .  S
C1942      C1943   1.407       .  A
C1942      H1951   1.084       .  S
C1943      C1944   1.408       .  A
C1944      H1952   1.084       .  S
C1953      C1954   1.400       .  A
C1953      C1958   1.404       .  A
C1953      H1969   1.083       .  S
C1954      C1955   1.403       .  A
C1954      H1970   1.083       .  S
C1955      C1965   1.406       .  A
C1955      C1956   1.414       .  A
C1956      C1962   1.411       .  A
C1956      C1957   1.414       .  A
C1957      C1959   1.413       .  A
C1957      C1958   1.410       .  A
C1958      C1966   1.403       .  A
C1959      C1968   1.407       .  A
C1959      C1960   1.404       .  A
C1960      C1961   1.400       .  A
C1960      H1971   1.083       .  S
C1961      C1962   1.404       .  A
C1961      H1972   1.084       .  S
C1962      C1963   1.404       .  A
C1963      C1964   1.406       .  A
C1963      H1973   1.085       .  S
C1964      C1965   1.404       .  A
C1965      H1974   1.084       .  S
C1966      C1967   1.407       .  A
C1966      H1975   1.084       .  S
C1967      C1968   1.407       .  A
C1968      H1976   1.084       .  S
C1977      C1978   1.397       .  A
C1977      C1982   1.402       .  A
C1977      H1993   1.084       .  S
C1978      C1979   1.402       .  A
C1978      H1994   1.084       .  S
C1979      C1989   1.398       .  A
C1979      C1980   1.411       .  A
C1980      C1986   1.413       .  A
C1980      C1981   1.411       .  A
C1981      C1983   1.412       .  A
C1981      C1982   1.412       .  A
C1982      C1990   1.400       .  A
C1983      C1992   1.405       .  A
C1983      C1984   1.404       .  A
C1984      C1985   1.400       .  A
C1984      H1995   1.083       .  S
C1985      C1986   1.404       .  A
C1985      H1996   1.084       .  S
C1986      C1987   1.405       .  A
C1987      C1988   1.405       .  A
C1987      H1997   1.084       .  S
C1988      C1989   1.404       .  A
C1989      H1998   1.085       .  S
C1990      C1991   1.404       .  A
C1990      H1999   1.084       .  S
C1991      C1992   1.406       .  A
C1992      H2000   1.084       .  S
C2001      C2002   1.398       .  A
C2001      C2006   1.403       .  A
C2001      H2017   1.084       .  S
C2002      C2003   1.403       .  A
C2002      H2018   1.083       .  S
C2003      C2013   1.401       .  A
C2003      C2004   1.411       .  A
C2004      C2010   1.413       .  A
C2004      C2005   1.414       .  A
C2005      C2007   1.412       .  A
C2005      C2006   1.412       .  A
C2006      C2014   1.403       .  A
C2007      C2016   1.408       .  A
C2007      C2008   1.405       .  A
C2008      C2009   1.402       .  A
C2008      H2019   1.083       .  S
C2009      C2010   1.405       .  A
C2009      H2020   1.083       .  S
C2010      C2011   1.409       .  A
C2011      C2012   1.409       .  A
C2011      H2021   1.084       .  S
C2012      C2013   1.406       .  A
C2013      H2022   1.084       .  S
C2014      C2015   1.404       .  A
C2014      H2023   1.085       .  S
C2015      C2016   1.406       .  A
C2016      H2024   1.084       .  S
C2025      C2026   1.400       .  A
C2025      C2030   1.404       .  A
C2025      H2041   1.084       .  S
C2026      C2027   1.404       .  A
C2026      H2042   1.083       .  S
C2027      C2037   1.407       .  A
C2027      C2028   1.412       .  A
C2028      C2034   1.411       .  A
C2028      C2029   1.413       .  A
C2029      C2031   1.413       .  A
C2029      C2030   1.412       .  A
C2030      C2038   1.404       .  A
C2031      C2040   1.402       .  A
C2031      C2032   1.403       .  A
C2032      C2033   1.398       .  A
C2032      H2043   1.084       .  S
C2033      C2034   1.404       .  A
C2033      H2044   1.083       .  S
C2034      C2035   1.402       .  A
C2035      C2036   1.407       .  A
C2035      H2045   1.084       .  S
C2036      C2037   1.407       .  A
C2037      H2046   1.084       .  S
C2038      C2039   1.404       .  A
C2038      H2047   1.084       .  S
C2039      C2040   1.402       .  A
C2040      H2048   1.085       .  S
C2049      C2050   1.400       .  A
C2049      C2054   1.404       .  A
C2049      H2065   1.084       .  S
C2050      C2051   1.404       .  A
C2050      H2066   1.083       .  S
C2051      C2061   1.404       .  A
C2051      C2052   1.412       .  A
C2052      C2058   1.411       .  A
C2052      C2053   1.411       .  A
C2053      C2055   1.412       .  A
C2053      C2054   1.413       .  A
C2054      C2062   1.404       .  A
C2055      C2064   1.399       .  A
C2055      C2056   1.402       .  A
C2056      C2057   1.397       .  A
C2056      H2067   1.084       .  S
C2057      C2058   1.403       .  A
C2057      H2068   1.084       .  S
C2058      C2059   1.400       .  A
C2059      C2060   1.405       .  A
C2059      H2069   1.084       .  S
C2060      C2061   1.405       .  A
C2061      H2070   1.084       .  S
C2062      C2063   1.404       .  A
C2062      H2071   1.085       .  S
C2063      C2064   1.402       .  A
C2064      H2072   1.085       .  S
C2073      C2074   1.401       .  A
C2073      C2078   1.404       .  A
C2073      H2089   1.083       .  S
C2074      C2075   1.404       .  A
C2074      H2090   1.084       .  S
C2075      C2085   1.406       .  A
C2075      C2076   1.413       .  A
C2076      C2082   1.411       .  A
C2076      C2077   1.412       .  A
C2077      C2079   1.412       .  A
C2077      C2078   1.411       .  A
C2078      C2086   1.405       .  A
C2079      C2088   1.402       .  A
C2079      C2080   1.403       .  A
C2080      C2081   1.397       .  A
C2080      H2091   1.084       .  S
C2081      C2082   1.403       .  A
C2081      H2092   1.084       .  S
C2082      C2083   1.399       .  A
C2083      C2084   1.404       .  A
C2083      H2093   1.085       .  S
C2084      C2085   1.405       .  A
C2085      H2094   1.084       .  S
C2086      C2087   1.407       .  A
C2086      H2095   1.084       .  S
C2087      C2088   1.404       .  A
C2088      H2096   1.084       .  S
