geometry optimzed in LAMMPS
_audit_creation_date              2020-12-01 
_audit_creation_method            'lammps2cif' 
_symmetry_space_group_name_H-M    'P1' 
_symmetry_Int_Tables_number       1 
_symmetry_cell_setting            triclinic 
loop_ 
_symmetry_equiv_pos_as_xyz 
  x,y,z 
_cell_length_a                    29.28663589 
_cell_length_b                    29.199672202606965 
_cell_length_c                    39.8822329092011 
_cell_angle_alpha                 90.23217556221752 
_cell_angle_beta                  89.72055935897927 
_cell_angle_gamma                 90.0160286548427 
loop_ 
_atom_site_label 
_atom_site_type_symbol 
_atom_site_fract_x 
_atom_site_fract_y 
_atom_site_fract_z 
_atom_site_charge 
O1          O  0.87003761  0.96875012  0.63557914    -0.72200
O2          O  0.81475466  0.85105549  0.62176058    -0.72500
O3          O  0.81276348  0.91393350  0.67127037    -0.72300
O4          O  0.87041527  0.90579841  0.58588282    -0.72300
O5          O  0.92884764  0.87233705  0.60842197    -0.72300
O6          O  0.87112138  0.88114310  0.69417743    -0.72300
O7          O  0.87359855  0.81924469  0.64461322    -0.72300
O8          O  0.92786019  0.93482550  0.65858291    -0.72400
V9          V  0.84310792  0.90943864  0.62910061     1.35200
V10         V  0.89926871  0.87780134  0.65101147     1.35200
C11         C  0.90876908  0.97144637  0.64955521     0.77000
C12         C  0.83514106  0.81486147  0.63085928     0.77000
C13         C  0.83126020  0.89762608  0.69716855     0.76900
C14         C  0.90865526  0.88633080  0.58236163     0.76900
O15         O  0.05074372  0.14630401  0.63705289    -0.72200
O16         O  0.16823238  0.20078132  0.62460766    -0.72500
O17         O  0.11293874  0.14802697  0.58725819    -0.72300
O18         O  0.10645362  0.20026013  0.67426859    -0.72300
O19         O  0.13824646  0.13962641  0.69516877    -0.72300
O20         O  0.14494754  0.08728684  0.60736396    -0.72300
O21         O  0.19985391  0.13999693  0.64512775    -0.72300
O22         O  0.08349151  0.08616726  0.65789526    -0.72400
V23         V  0.11009471  0.17263856  0.63124131     1.35200
V24         V  0.14091988  0.11440040  0.65098864     1.35200
C25         C  0.04734957  0.10646962  0.64929325     0.77000
C26         C  0.20418999  0.17950607  0.63280924     0.77000
C27         C  0.13043857  0.10912522  0.58212709     0.76900
C28         C  0.12183152  0.17934749  0.69946704     0.76900
O29         O  0.04766509  0.30700711  0.88948112    -0.72200
O30         O  0.16321193  0.25083036  0.90462145    -0.72500
O31         O  0.10726715  0.30470008  0.94052881    -0.72300
O32         O  0.10377784  0.25208033  0.85349291    -0.72300
O33         O  0.13943944  0.31094192  0.83340794    -0.72300
O34         O  0.14016004  0.36517578  0.92037927    -0.72300
O35         O  0.19684089  0.31144615  0.88540026    -0.72300
O36         O  0.08260952  0.36567759  0.86804930    -0.72400
V37         V  0.10601325  0.27978403  0.89659243     1.35200
V38         V  0.13893875  0.33720019  0.87718609     1.35200
C39         C  0.04573090  0.34610029  0.87597590     0.77000
C40         C  0.19988357  0.27203825  0.89792553     0.77000
C41         C  0.12543703  0.34336083  0.94556273     0.76900
C42         C  0.12171433  0.27197142  0.82857609     0.76900
O43         O  0.86718287  0.48204365  0.89000729    -0.72200
O44         O  0.81038130  0.59950541  0.90011487    -0.72500
O45         O  0.81472213  0.53602594  0.85137532    -0.72300
O46         O  0.86164427  0.54489341  0.93917183    -0.72300
O47         O  0.92396185  0.57510359  0.91996659    -0.72300
O48         O  0.87440397  0.57129539  0.83190819    -0.72300
O49         O  0.87300168  0.63110388  0.88281964    -0.72300
O50         O  0.92644705  0.51587513  0.86849054    -0.72400
V51         V  0.83958507  0.54117170  0.89483150     1.35200
V52         V  0.89824835  0.57265122  0.87619943     1.35200
C53         C  0.90679311  0.47940968  0.87718553     0.77000
C54         C  0.83249590  0.63558013  0.89286658     0.77000
C55         C  0.83610593  0.55257125  0.82669234     0.76900
C56         C  0.90082100  0.56120856  0.94479978     0.76900
O57         O  0.53439017  0.30493309  0.63768368    -0.72200
O58         O  0.41836613  0.24627604  0.62686458    -0.72500
O59         O  0.47238902  0.29838753  0.58816605    -0.72300
O60         O  0.48004708  0.25153229  0.67629080    -0.72300
O61         O  0.44499636  0.31142438  0.69557095    -0.72300
O62         O  0.43930363  0.35956592  0.60723168    -0.72300
O63         O  0.38501518  0.30762659  0.64539871    -0.72300
O64         O  0.49940251  0.36457021  0.65783112    -0.72400
V65         V  0.47580926  0.27644334  0.63265222     1.35200
V66         V  0.44304178  0.33467630  0.65113551     1.35200
C67         C  0.53634809  0.34500611  0.64995227     0.77000
C68         C  0.38173096  0.26744727  0.63401572     0.77000
C69         C  0.45343021  0.33638177  0.58241027     0.76900
C70         C  0.46253831  0.27259834  0.70093773     0.76900
O71         O  0.71538885  0.48094361  0.63306140    -0.72200
O72         O  0.77685335  0.59573589  0.62254980    -0.72500
O73         O  0.77120620  0.53293199  0.67135147    -0.72300
O74         O  0.72178989  0.54363381  0.58406876    -0.72300
O75         O  0.66100330  0.57525181  0.60511812    -0.72300
O76         O  0.71433297  0.57217293  0.69142287    -0.72300
O77         O  0.71576413  0.63092058  0.63991582    -0.72300
O78         O  0.65891475  0.51697495  0.65669184    -0.72400
V79         V  0.74526358  0.53891859  0.62812522     1.35200
V80         V  0.68865952  0.57305795  0.64789661     1.35200
C81         C  0.67642534  0.47965123  0.64697816     0.77000
C82         C  0.75635132  0.63291955  0.62928207     0.77000
C83         C  0.75157615  0.55143173  0.69623173     0.76900
C84         C  0.68272485  0.56083377  0.57970786     0.76900
O85         O  0.70227411  0.96379952  0.88905400    -0.72200
O86         O  0.76658327  0.85122584  0.90236443    -0.72500
O87         O  0.76004488  0.91172749  0.85225478    -0.72300
O88         O  0.71073437  0.90339753  0.93974027    -0.72300
O89         O  0.65191921  0.86688928  0.92063075    -0.72300
O90         O  0.70346186  0.87226936  0.83236734    -0.72300
O91         O  0.70730177  0.81397573  0.88429164    -0.72300
O92         O  0.64593278  0.92465919  0.86856934    -0.72400
V93         V  0.73376089  0.90695060  0.89547738     1.35200
V94         V  0.67821644  0.87037788  0.87679717     1.35200
C95         C  0.66290844  0.96298737  0.87592703     0.77000
C96         C  0.74712318  0.81340160  0.89593509     0.77000
C97         C  0.74141475  0.89227047  0.82756816     0.76900
C98         C  0.67363226  0.88297043  0.94550289     0.76900
O99         O  0.52517376  0.14063569  0.88890932    -0.72200
O100        O  0.41176609  0.20099657  0.90549366    -0.72500
O101        O  0.46457442  0.14284756  0.93956571    -0.72300
O102        O  0.47210655  0.20000599  0.85479708    -0.72300
O103        O  0.43733934  0.14201186  0.83197650    -0.72300
O104        O  0.42717767  0.08611392  0.91765142    -0.72300
O105        O  0.37608674  0.14398817  0.88233490    -0.72300
O106        O  0.48809170  0.08345308  0.86731609    -0.72400
V107        V  0.46781024  0.17002675  0.89669513     1.35200
V108        V  0.43295673  0.11501348  0.87519890     1.35200
C109        C  0.52569348  0.10106803  0.87582852     0.77000
C110        C  0.37453168  0.18230054  0.89700078     0.77000
C111        C  0.44393416  0.10528088  0.94332668     0.76900
C112        C  0.45600023  0.18086194  0.82902217     0.76900
O113        O  0.36928535  0.45472241  0.39471053    -0.72200
O114        O  0.31544849  0.33570343  0.40102817    -0.72500
O115        O  0.36732318  0.38838990  0.44063885    -0.72300
O116        O  0.31557028  0.40230291  0.35477467    -0.72300
O117        O  0.37449849  0.36954507  0.33202084    -0.72300
O118        O  0.42930407  0.36080343  0.41856864    -0.72300
O119        O  0.37736417  0.30623607  0.38043560    -0.72300
O120        O  0.42797540  0.42396004  0.36988418    -0.72400
V121        V  0.34301760  0.39479466  0.39726513     1.35200
V122        V  0.40114859  0.36584781  0.37559951     1.35200
C123        C  0.40845545  0.45914510  0.38148925     0.77000
C124        C  0.33786465  0.30041033  0.39223485     0.77000
C125        C  0.40693874  0.37237459  0.44452598     0.76900
C126        C  0.33498145  0.38673645  0.32882977     0.76900
O127        O  0.54447389  0.63869261  0.39455968    -0.72200
O128        O  0.65938628  0.70061008  0.40104539    -0.72500
O129        O  0.59387506  0.69457924  0.35437270    -0.72300
O130        O  0.60978482  0.64640034  0.44107304    -0.72300
O131        O  0.64188745  0.58569075  0.42041937    -0.72300
O132        O  0.62994092  0.63643718  0.33290290    -0.72300
O133        O  0.69279402  0.63992512  0.38137671    -0.72300
O134        O  0.57940384  0.58085997  0.37156364    -0.72400
V135        V  0.60240930  0.66892928  0.39731368     1.35200
V136        V  0.63524540  0.61185277  0.37694434     1.35200
C137        C  0.54276673  0.59899443  0.38165016     0.77000
C138        C  0.69592611  0.68020807  0.39266432     0.77000
C139        C  0.61050825  0.67479723  0.32895049     0.76900
C140        C  0.62839059  0.60814700  0.44586677     0.76900
O141        O  0.02890780  0.63793006  0.13484317    -0.72200
O142        O  0.90944160  0.68855436  0.12446389    -0.72500
O143        O  0.97233505  0.69117587  0.17291394    -0.72300
O144        O  0.96542001  0.63725037  0.08658654    -0.72300
O145        O  0.93507034  0.57611530  0.10803185    -0.72300
O146        O  0.94322581  0.62980475  0.19499695    -0.72300
O147        O  0.88041433  0.62744209  0.14652792    -0.72300
O148        O  0.99831073  0.57716870  0.15681603    -0.72400
V149        V  0.96866004  0.66255411  0.13022161     1.35200
V150        V  0.94005307  0.60377840  0.15119580     1.35200
C151        C  0.03355517  0.59820441  0.14705547     0.77000
C152        C  0.87437177  0.66626943  0.13363655     0.77000
C153        C  0.95792122  0.67030087  0.19854323     0.76900
C154        C  0.94746535  0.59837833  0.08238333     0.76900
O155        O  0.21132767  0.45996949  0.13567841    -0.72200
O156        O  0.26440374  0.34109633  0.12418868    -0.72500
O157        O  0.21146784  0.39637030  0.08734424    -0.72300
O158        O  0.26578325  0.40486177  0.17293839    -0.72300
O159        O  0.20626095  0.37298622  0.19546518    -0.72300
O160        O  0.15061181  0.36628030  0.10909525    -0.72300
O161        O  0.20352384  0.31083031  0.14613147    -0.72300
O162        O  0.15220669  0.42823073  0.15910603    -0.72400
V163        V  0.23711219  0.40005757  0.13055295     1.35200
V164        V  0.17928437  0.37028213  0.15201772     1.35200
C165        C  0.17216897  0.46394052  0.14902903     0.77000
C166        C  0.24268279  0.30569946  0.13335468     0.77000
C167        C  0.17197118  0.37998325  0.08330619     0.76900
C168        C  0.24621560  0.38909505  0.19869511     0.76900
O169        O  0.36812199  0.97507801  0.13280411    -0.72200
O170        O  0.30298665  0.08813171  0.12559626    -0.72500
O171        O  0.35655794  0.03782771  0.08481709    -0.72300
O172        O  0.31327506  0.02501720  0.17371294    -0.72300
O173        O  0.37048792  0.06476583  0.19211437    -0.72300
O174        O  0.41752762  0.07162175  0.10286384    -0.72300
O175        O  0.36393448  0.12463373  0.14146212    -0.72300
O176        O  0.42552952  0.01237185  0.15375527    -0.72400
V177        V  0.33635704  0.03214260  0.12961744     1.35200
V178        V  0.39326814  0.06755531  0.14721862     1.35200
C179        C  0.40826615  0.97482792  0.14450219     0.77000
C180        C  0.32293087  0.12562804  0.13208633     0.77000
C181        C  0.39437430  0.05649009  0.07841531     0.76900
C182        C  0.33353604  0.04367987  0.19810485     0.76900
O183        O  0.54632572  0.79708522  0.13287229    -0.72200
O184        O  0.65908724  0.73190967  0.12410666    -0.72500
O185        O  0.59424228  0.73887396  0.17174299    -0.72300
O186        O  0.61077577  0.78879982  0.08522659    -0.72300
O187        O  0.64423260  0.84830572  0.10646980    -0.72300
O188        O  0.63302452  0.79486573  0.19328257    -0.72300
O189        O  0.69483128  0.79148944  0.14344649    -0.72300
O190        O  0.58303676  0.85297166  0.15662824    -0.72400
V191        V  0.60323077  0.76524257  0.12893287     1.35200
V192        V  0.63802059  0.82078313  0.14959416     1.35200
C193        C  0.54580214  0.83635096  0.14653900     0.77000
C194        C  0.69635240  0.75143953  0.13161817     0.77000
C195        C  0.61182823  0.75737802  0.19722110     0.76900
C196        C  0.62963053  0.82714404  0.08084571     0.76900
O197        O  0.02814315  0.79762962  0.38962353    -0.72200
O198        O  0.91263935  0.73871409  0.40085702    -0.72500
O199        O  0.97400443  0.74435943  0.35140811    -0.72300
O200        O  0.96674559  0.79079654  0.43981766    -0.72300
O201        O  0.93630636  0.85351418  0.42181601    -0.72300
O202        O  0.93562080  0.80239023  0.33309177    -0.72300
O203        O  0.87871572  0.80159385  0.38602542    -0.72300
O204        O  0.99305386  0.85597537  0.36819124    -0.72400
V205        V  0.96981044  0.76909094  0.39514034     1.35200
V206        V  0.93674023  0.82734616  0.37762235     1.35200
C207        C  0.03001956  0.83676801  0.37608820     0.77000
C208        C  0.87606714  0.76042497  0.39510565     0.77000
C209        C  0.95463340  0.76412620  0.32723803     0.76900
C210        C  0.95011898  0.82966488  0.44633060     0.76900
O211        O  0.20818396  0.97217716  0.39160087    -0.72200
O212        O  0.27155944  0.08522016  0.40314983    -0.72500
O213        O  0.21518925  0.03456400  0.44139809    -0.72300
O214        O  0.26536237  0.02347545  0.35374578    -0.72300
O215        O  0.20826282  0.06197450  0.33374406    -0.72300
O216        O  0.15589291  0.06908498  0.42129326    -0.72300
O217        O  0.21195614  0.12169823  0.38502890    -0.72300
O218        O  0.15151013  0.00926365  0.36974839    -0.72400
V219        V  0.23888829  0.02941626  0.39710547     1.35200
V220        V  0.18299147  0.06467051  0.37783049     1.35200
C221        C  0.16894510  0.97160203  0.37843481     0.77000
C222        C  0.25214230  0.12269845  0.39624526     0.77000
C223        C  0.17729394  0.05413747  0.44652747     0.76900
C224        C  0.24597571  0.04176041  0.32892578     0.76900
C225        C  0.10687017  0.86024805  0.39632438    -0.09600
C226        C  0.07343563  0.86169672  0.37124877     0.06600
C227        C  0.07852180  0.89315141  0.34476072    -0.03400
C228        C  0.11232308  0.92674654  0.34641939    -0.07800
C229        C  0.14243719  0.92892889  0.37366035     0.05700
C230        C  0.14156616  0.89337048  0.39757651    -0.02900
Br231      Br  0.18316417  0.89094251  0.43452049    -0.02600
H232        H  0.10399057  0.83561186  0.41644774     0.09600
H233        H  0.11382469  0.95252513  0.32698704     0.07600
Br234      Br  0.03969996  0.89241848  0.30602655    -0.03000
C235        C  0.31514917  0.04927185  0.29308446    -0.09600
C236        C  0.26802574  0.04087193  0.29548229     0.06600
C237        C  0.24319916  0.03248419  0.26597011    -0.03400
C238        C  0.26557364  0.03269981  0.23489211    -0.07800
C239        C  0.31266376  0.04205343  0.23220529     0.05700
C240        C  0.33749779  0.05046494  0.26192840    -0.02900
Br241      Br  0.40188705  0.06287782  0.26227961    -0.02600
H242        H  0.33463136  0.05586447  0.31563431     0.09600
H243        H  0.24562149  0.02619771  0.21257166     0.07600
Br244      Br  0.17913387  0.01849956  0.26664297    -0.03000
C245        C  0.46313815  0.92734525  0.17568150    -0.09600
C246        C  0.43582469  0.93264231  0.14717151     0.06600
C247        C  0.44069207  0.90133522  0.12033414    -0.03400
C248        C  0.47433259  0.86714582  0.12172182    -0.07800
C249        C  0.50381748  0.86415461  0.14930550     0.05700
C250        C  0.49677060  0.89356102  0.17700273    -0.02900
Br251      Br  0.53282456  0.89005838  0.21706531    -0.02600
H252        H  0.45951107  0.95089501  0.19660755     0.09600
H253        H  0.47975615  0.84520682  0.10008775     0.07600
Br254      Br  0.40707239  0.90761610  0.07943287    -0.03000
C255        C  0.25568111  0.22971151  0.15844727    -0.09600
C256        C  0.26253729  0.25924045  0.13117754     0.06600
C257        C  0.28749305  0.24338911  0.10308614    -0.03400
C258        C  0.30554427  0.19881581  0.10301269    -0.07800
C259        C  0.29901904  0.16979391  0.13061276     0.05700
C260        C  0.27414146  0.18566080  0.15851616    -0.02900
Br261      Br  0.26703921  0.14949187  0.19823219    -0.02600
H262        H  0.23696069  0.24147931  0.18035447     0.09600
H263        H  0.32525943  0.18700286  0.08160143     0.07600
Br264      Br  0.29633585  0.28034702  0.06392132    -0.03000
C265        C  0.82311162  0.73120933  0.11944919    -0.09600
C266        C  0.82764398  0.68562779  0.13009559     0.06600
C267        C  0.78740285  0.66058252  0.13798423    -0.03400
C268        C  0.74471092  0.68205531  0.13662755    -0.07800
C269        C  0.74085706  0.72823757  0.12785385     0.05700
C270        C  0.78044982  0.75253094  0.11831132    -0.02900
Br271      Br  0.77842958  0.81465495  0.10265047    -0.02600
H272        H  0.85303012  0.75092845  0.11255781     0.09600
H273        H  0.71446616  0.66300357  0.14382764     0.07600
Br274      Br  0.78695404  0.59745072  0.15152160    -0.03000
C275        C  0.97053789  0.69593006  0.29134596    -0.09600
C276        C  0.95416918  0.74131452  0.29364787     0.06600
C277        C  0.93787842  0.76236707  0.26410977    -0.03400
C278        C  0.94007409  0.73872876  0.23343400    -0.07800
C279        C  0.95676681  0.69369116  0.23146063     0.05700
C280        C  0.97148012  0.67207477  0.26088412    -0.02900
Br281      Br  0.99545150  0.61087123  0.26069083    -0.02600
H282        H  0.98272563  0.67846214  0.31347374     0.09600
H283        H  0.92784317  0.75539848  0.21096568     0.07600
Br284      Br  0.91183251  0.82269469  0.26329221    -0.03000
C285        C  0.13900475  0.53210167  0.12130527    -0.09600
C286        C  0.14778093  0.50810480  0.15102665     0.06600
C287        C  0.12451971  0.52088810  0.18060034    -0.03400
C288        C  0.08995956  0.55387839  0.17943744    -0.07800
C289        C  0.07818027  0.57488283  0.14910630     0.05700
C290        C  0.10425373  0.56517033  0.12010094    -0.02900
Br291      Br  0.08903507  0.59044798  0.07725203    -0.02600
H292        H  0.15615131  0.52210590  0.09828027     0.09600
H293        H  0.07034073  0.56117250  0.20193978     0.07600
Br294      Br  0.13712269  0.49224630  0.22279839    -0.03000
C295        C  0.77780503  0.68114076  0.37690916    -0.09600
C296        C  0.74177789  0.70172410  0.39501316     0.06600
C297        C  0.75120564  0.74113717  0.41453862    -0.03400
C298        C  0.79559390  0.75918462  0.41501752    -0.07800
C299        C  0.83114905  0.73819385  0.39692273     0.05700
C300        C  0.82193652  0.69896120  0.37767109    -0.02900
Br301      Br  0.86733031  0.67078829  0.34943468    -0.02600
H302        H  0.77159851  0.65131232  0.36134598     0.09600
H303        H  0.80243665  0.78981730  0.42958240     0.07600
Br304      Br  0.70608583  0.77135876  0.44180085    -0.03000
C305        C  0.60213544  0.66894605  0.26714510    -0.09600
C306        C  0.60809651  0.69653153  0.29560802     0.06600
C307        C  0.61309950  0.74431825  0.29153423    -0.03400
C308        C  0.61353471  0.76321486  0.25937894    -0.07800
C309        C  0.60828497  0.73564708  0.23073624     0.05700
C310        C  0.60155885  0.68792101  0.23496952    -0.02900
Br311      Br  0.59345831  0.64576955  0.19834775    -0.02600
H312        H  0.59791458  0.63229619  0.26994464     0.09600
H313        H  0.61840127  0.79980905  0.25679072     0.07600
Br314      Br  0.62270740  0.78559678  0.32849344    -0.03000
C315        C  0.31950875  0.17114928  0.38497843    -0.09600
C316        C  0.27616328  0.16668903  0.39942278     0.06600
C317        C  0.25479961  0.20536830  0.41359581    -0.03400
C318        C  0.27585417  0.24824703  0.41151772    -0.07800
C319        C  0.31840324  0.25357560  0.39548719     0.05700
C320        C  0.34079705  0.21389805  0.38275133    -0.02900
Br321      Br  0.39935987  0.21429497  0.36066277    -0.02600
H322        H  0.33609995  0.14143670  0.37401228     0.09600
H323        H  0.25850737  0.27761386  0.42229319     0.07600
Br324      Br  0.19760649  0.20102539  0.43710435    -0.03000
C325        C  0.24319672  0.39055983  0.26109982    -0.09600
C326        C  0.26960529  0.38911576  0.23168849     0.06600
C327        C  0.31768995  0.38631667  0.23457342    -0.03400
C328        C  0.33808069  0.38598550  0.26629007    -0.07800
C329        C  0.31170742  0.38808616  0.29574610     0.05700
C330        C  0.26351502  0.38994922  0.29281303    -0.02900
Br331      Br  0.22263124  0.38864264  0.33065546    -0.02600
H332        H  0.20630161  0.39197923  0.25945969     0.09600
H333        H  0.37493029  0.38373704  0.26787870     0.07600
Br334      Br  0.35769321  0.37939022  0.19655639    -0.03000
C335        C  0.47300909  0.56568448  0.40782903    -0.09600
C336        C  0.50004930  0.57252638  0.37909291     0.06600
C337        C  0.49081559  0.54685632  0.34990804    -0.03400
C338        C  0.45730286  0.51295552  0.35047580    -0.07800
C339        C  0.43286368  0.50328799  0.37991409     0.05700
C340        C  0.43987449  0.53088146  0.40858570    -0.02900
Br341      Br  0.41073029  0.51788534  0.45069848    -0.02600
H342        H  0.48043430  0.58454638  0.43060250     0.09600
H343        H  0.45231983  0.49198871  0.32830880     0.07600
Br344      Br  0.52502598  0.55456297  0.30907265    -0.03000
C345        C  0.45092813  0.08639562  0.03721829    -0.09600
C346        C  0.41022051  0.06221936  0.04321709     0.06600
C347        C  0.38458014  0.04671812  0.01527636    -0.03400
C348        C  0.39798801  0.05887223  0.98284549    -0.07800
C349        C  0.43661418  0.08617098  0.97720651     0.05700
C350        C  0.46435543  0.09825230  0.00471582    -0.02900
Br351      Br  0.52115666  0.13054141  0.99990247    -0.02600
H352        H  0.47199429  0.09740936  0.05799724     0.09600
H353        H  0.37666092  0.04864612  0.96198296     0.07600
Br354      Br  0.33003759  0.01024425  0.01854089    -0.03000
C355        C  0.62334727  0.84257809  0.98612188    -0.09600
C356        C  0.65790588  0.87501101  0.98054933     0.06600
C357        C  0.67928073  0.89533077  0.00877377    -0.03400
C358        C  0.66825978  0.88041041  0.04114680    -0.07800
C359        C  0.63588595  0.84570494  0.04647928     0.05700
C360        C  0.61204292  0.82800805  0.01845971    -0.02900
Br361      Br  0.56334488  0.78406234  0.02181852    -0.02600
H362        H  0.60582005  0.82710240  0.96507097     0.09600
H363        H  0.68625218  0.89522509  0.06223799     0.07600
Br364      Br  0.72392700  0.94344326  0.00569222    -0.03000
C365        C  0.63901127  0.04206110  0.89261163    -0.09600
C366        C  0.63536247  0.00474455  0.87043048     0.06600
C367        C  0.60059944  0.00521382  0.84598214    -0.03400
C368        C  0.56752954  0.03942440  0.84669752    -0.07800
C369        C  0.56802927  0.07397106  0.87122559     0.05700
C370        C  0.60575481  0.07674028  0.89313211    -0.02900
Br371      Br  0.61175980  0.12399652  0.92637087    -0.02600
H372        H  0.66590568  0.04266584  0.91113955     0.09600
H373        H  0.53984740  0.03765359  0.82882014     0.07600
Br374      Br  0.59488376  0.95942936  0.81139338    -0.03000
C375        C  0.63248417  0.60253714  0.54091156    -0.09600
C376        C  0.66391033  0.56704464  0.54573617     0.06600
C377        C  0.67849385  0.54104014  0.51775306    -0.03400
C378        C  0.66479642  0.55365533  0.48551591    -0.07800
C379        C  0.63612797  0.59159033  0.48047106     0.05700
C380        C  0.61826928  0.61484649  0.50891067    -0.02900
Br381      Br  0.57479315  0.66416709  0.50695787    -0.02600
H382        H  0.62001545  0.62221111  0.56215051     0.09600
H383        H  0.67776251  0.53437709  0.46425699     0.07600
Br384      Br  0.71604150  0.48746717  0.52167775    -0.03000
C385        C  0.46938630  0.32781952  0.52136539    -0.09600
C386        C  0.44632657  0.35137936  0.54727426     0.06600
C387        C  0.41386925  0.38503183  0.53851892    -0.03400
C388        C  0.40390727  0.39269126  0.50480692    -0.07800
C389        C  0.42492153  0.36720950  0.47901922     0.05700
C390        C  0.45893802  0.33516494  0.48759042    -0.02900
Br391      Br  0.48966102  0.29721039  0.45515784    -0.02600
H392        H  0.49455718  0.30198842  0.52738809     0.09600
H393        H  0.37801357  0.41782581  0.49882150     0.07600
Br394      Br  0.37852381  0.41944960  0.57061277    -0.03000
C395        C  0.48196132  0.20746795  0.73829845    -0.09600
C396        C  0.46168080  0.25096090  0.73464932     0.06600
C397        C  0.43956148  0.27092294  0.76284486    -0.03400
C398        C  0.43870993  0.24758584  0.79341896    -0.07800
C399        C  0.45827628  0.20407447  0.79649063     0.05700
C400        C  0.48005946  0.18394691  0.76871319    -0.02900
Br401      Br  0.50931205  0.12526465  0.77153340    -0.02600
H402        H  0.49915561  0.19120989  0.71729812     0.09600
H403        H  0.42172357  0.26309839  0.81484206     0.07600
Br404      Br  0.40834328  0.32879773  0.76194245    -0.03000
C405        C  0.61978930  0.43470522  0.67891091    -0.09600
C406        C  0.64994333  0.43678149  0.65151534     0.06600
C407        C  0.64829809  0.40152567  0.62713313    -0.03400
C408        C  0.61312406  0.36876996  0.62843420    -0.07800
C409        C  0.57983782  0.37030214  0.65390033     0.05700
C410        C  0.58531623  0.40183649  0.68045779    -0.02900
Br411      Br  0.54586098  0.40257667  0.71910581    -0.02600
H412        H  0.62160222  0.46049874  0.69868907     0.09600
H413        H  0.60985444  0.34407588  0.60802656     0.07600
Br414      Br  0.68970906  0.39899590  0.58979689    -0.03000
C415        C  0.76933854  0.68754968  0.91130828    -0.09600
C416        C  0.81206151  0.68203199  0.89557042     0.06600
C417        C  0.83406441  0.72133803  0.88208902    -0.03400
C418        C  0.81366100  0.76431992  0.88507455    -0.07800
C419        C  0.77059136  0.76929196  0.89968569     0.05700
C420        C  0.74828997  0.73056229  0.91302769    -0.02900
Br421      Br  0.68919527  0.73465031  0.93397524    -0.02600
H422        H  0.75178076  0.65823775  0.92180836     0.09600
H423        H  0.83028495  0.79371446  0.87386768     0.07600
Br424      Br  0.88968734  0.71989842  0.85620952    -0.03000
C425        C  0.88765800  0.55126378  0.00586626    -0.09600
C426        C  0.91732771  0.56508963  0.97991341     0.06600
C427        C  0.95982590  0.58479072  0.98865361    -0.03400
C428        C  0.96999484  0.59300029  0.02242345    -0.07800
C429        C  0.93906857  0.58142177  0.04803972     0.05700
C430        C  0.89793197  0.55937970  0.03950342    -0.02900
Br431      Br  0.85157557  0.54454800  0.07194421    -0.02600
H432        H  0.85500154  0.53580765  0.00006171     0.09600
H433        H  0.00183206  0.60982594  0.02866987     0.07600
Br434      Br  0.00531836  0.60274894  0.95641341    -0.03000
C435        C  0.76771273  0.55206901  0.79057564    -0.09600
C436        C  0.81552530  0.55095989  0.79300989     0.06600
C437        C  0.84192523  0.54785264  0.76343600    -0.03400
C438        C  0.82029325  0.54730261  0.73225614    -0.07800
C439        C  0.77250300  0.54986968  0.72981172     0.05700
C440        C  0.74608100  0.55150365  0.75946980    -0.02900
Br441      Br  0.68045269  0.55047690  0.75959773    -0.02600
H442        H  0.74687639  0.55371667  0.81307970     0.09600
H443        H  0.84108260  0.54530607  0.70974991     0.07600
Br444      Br  0.90719696  0.54162043  0.76386599    -0.03000
C445        C  0.24751010  0.20294777  0.90730019    -0.09600
C446        C  0.24515264  0.25059785  0.90305129     0.06600
C447        C  0.28638385  0.27597484  0.90170275    -0.03400
C448        C  0.32827030  0.25308371  0.90135149    -0.07800
C449        C  0.33027126  0.20521348  0.90271787     0.05700
C450        C  0.28947504  0.18021983  0.90737297    -0.02900
Br451      Br  0.28865315  0.11526138  0.91490619    -0.02600
H452        H  0.21652719  0.18291801  0.90956939     0.09600
H453        H  0.35940866  0.27282101  0.89876224     0.07600
Br454      Br  0.28892967  0.34174695  0.90052992    -0.03000
C455        C  0.10522250  0.34090282  0.00628444    -0.09600
C456        C  0.13153720  0.36046012  0.98039731     0.06600
C457        C  0.16662035  0.39142584  0.98911690    -0.03400
C458        C  0.17696141  0.39894282  0.02283493    -0.07800
C459        C  0.15323451  0.37641426  0.04874436     0.05700
C460        C  0.11541143  0.34876106  0.04014102    -0.02900
Br461      Br  0.07757498  0.31850274  0.07267951    -0.02600
H462        H  0.07746514  0.31784011  0.00018417     0.09600
H463        H  0.20531055  0.42138896  0.02868186     0.07600
Br464      Br  0.20503003  0.42178969  0.95691540    -0.03000
C465        C  0.96987160  0.37044494  0.89751397    -0.09600
C466        C  0.00216960  0.37041919  0.87136016     0.06600
C467        C  0.99591865  0.40002141  0.84395055    -0.03400
C468        C  0.96085072  0.43224327  0.84484504    -0.07800
C469        C  0.93181022  0.43600329  0.87283433     0.05700
C470        C  0.93492667  0.40324666  0.89858573    -0.02900
Br471      Br  0.89733690  0.40594048  0.93806230    -0.02600
H472        H  0.97429234  0.34780043  0.91868679     0.09600
H473        H  0.95827740  0.45666212  0.82456016     0.07600
Br474      Br  0.03570940  0.39988144  0.80546249    -0.03000
C475        C  0.25295705  0.24901904  0.62885943    -0.09600
C476        C  0.24996162  0.20107372  0.62950466     0.06600
C477        C  0.29087308  0.17527749  0.62858621    -0.03400
C478        C  0.33321145  0.19760354  0.62908779    -0.07800
C479        C  0.33617123  0.24557240  0.63024959     0.05700
C480        C  0.29522238  0.27136130  0.62910298    -0.02900
Br481      Br  0.29366843  0.33711948  0.62693608    -0.02600
H482        H  0.22210462  0.26951202  0.62893650     0.09600
H483        H  0.36406322  0.17712118  0.62924116     0.07600
Br484      Br  0.29195073  0.10960126  0.62553091    -0.03000
C485        C  0.16517778  0.05319263  0.54190151    -0.09600
C486        C  0.13609520  0.09081890  0.54735068     0.06600
C487        C  0.11584424  0.11175286  0.51905704    -0.03400
C488        C  0.12808576  0.09756977  0.48664876    -0.07800
C489        C  0.15993002  0.06231872  0.48123504     0.05700
C490        C  0.17691662  0.03865918  0.50944146    -0.02900
Br491      Br  0.21570801  0.98583009  0.50581034    -0.02600
H492        H  0.18014558  0.03557071  0.56307624     0.09600
H493        H  0.11364971  0.11557919  0.46544743     0.07600
Br494      Br  0.07129353  0.15996142  0.52206686    -0.03000
C495        C  0.13410377  0.24853114  0.73447915    -0.09600
C496        C  0.12196925  0.20208938  0.73266604     0.06600
C497        C  0.10986060  0.17905469  0.76231531    -0.03400
C498        C  0.10999338  0.20258459  0.79298147    -0.07800
C499        C  0.12229499  0.24920306  0.79504653     0.05700
C500        C  0.13471164  0.27212702  0.76511668    -0.02900
Br501      Br  0.15197724  0.33558602  0.76336760    -0.02600
H502        H  0.14358618  0.26659908  0.71181656     0.09600
H503        H  0.10023360  0.18408719  0.81536907     0.07600
Br504      Br  0.08986088  0.11644873  0.76217115    -0.03000
C505        C  0.83908383  0.73103868  0.64139924    -0.09600
C506        C  0.81540807  0.76801470  0.62687310     0.06600
C507        C  0.77379924  0.75873003  0.61026542    -0.03400
C508        C  0.75572987  0.71416684  0.61053049    -0.07800
C509        C  0.77898221  0.67793295  0.62602738     0.05700
C510        C  0.82148351  0.68656582  0.64096832    -0.02900
Br511      Br  0.85510779  0.63988533  0.66395929    -0.02600
H512        H  0.87118432  0.73669660  0.65410617     0.09600
H513        H  0.72314503  0.70775674  0.59865979     0.07600
Br514      Br  0.74003233  0.80437202  0.58631382    -0.03000
C515        C  0.94344758  0.83174739  0.54223302    -0.09600
C516        C  0.92668093  0.87588309  0.54838591     0.06600
C517        C  0.92185985  0.90615506  0.52117823    -0.03400
C518        C  0.93135478  0.89109530  0.48837633    -0.07800
C519        C  0.94550466  0.84581148  0.48183111     0.05700
C520        C  0.95245498  0.81628567  0.50961122    -0.02900
Br521      Br  0.97059616  0.75313158  0.50586515    -0.02600
H522        H  0.94694669  0.80796954  0.56287464     0.09600
H523        H  0.92662124  0.91476009  0.46783225     0.07600
Br524      Br  0.90329016  0.96860632  0.52758771    -0.03000
C525        C  0.83303907  0.89355655  0.75949442    -0.09600
C526        C  0.80703072  0.89705674  0.73014220     0.06600
C527        C  0.75874228  0.89753615  0.73316232    -0.03400
C528        C  0.73799212  0.89549998  0.76495666    -0.07800
C529        C  0.76422910  0.89289456  0.79422008     0.05700
C530        C  0.81233229  0.89126633  0.79113363    -0.02900
Br531      Br  0.85198235  0.88240574  0.82881621    -0.02600
H532        H  0.86997766  0.89217931  0.75788527     0.09600
H533        H  0.70105104  0.89616133  0.76681291     0.07600
Br534      Br  0.71867635  0.89804773  0.69517706    -0.03000
C535        C  0.93745131  0.04546920  0.62665602    -0.09600
C536        C  0.93358578  0.01525785  0.65383026     0.06600
C537        C  0.96104391  0.02270559  0.68229901    -0.03400
C538        C  0.99577926  0.05552736  0.68137576    -0.07800
C539        C  0.00310361  0.08232520  0.65271814     0.05700
C540        C  0.97182382  0.07905827  0.62597702    -0.02900
Br541      Br  0.97820861  0.11497627  0.58608558    -0.02600
H542        H  0.91638012  0.04043191  0.60468696     0.09600
H543        H  0.01864736  0.05856090  0.70255716     0.07600
Br544      Br  0.95349007  0.98775246  0.72266573    -0.03000
loop_ 
_geom_bond_atom_site_label_1 
_geom_bond_atom_site_label_2 
_geom_bond_distance 
_geom_bond_site_symmetry_2 
_ccdc_geom_bond_type 
O1            V9   1.920       .  S
O1           C11   1.269       .  A
O2            V9   1.918       .  S
O2           C12   1.269       .  A
O3            V9   1.902       .  S
O3           C13   1.264       .  A
O4            V9   1.899       .  S
O4           C14   1.263       .  A
O5           V10   1.909       .  S
O5           C14   1.267       .  A
O6           V10   1.907       .  S
O6           C13   1.268       .  A
O7           V10   1.885       .  S
O7           C12   1.261       .  A
O8           V10   1.887       .  S
O8           C11   1.261       .  A
V9           V10   2.084       .  T
C11         C536   1.481   1_565  S
C12         C506   1.493       .  S
C13         C526   1.491       .  S
C14         C516   1.482       .  S
O15          V23   1.914       .  S
O15          C25   1.267       .  A
O16          V23   1.908       .  S
O16          C26   1.268       .  A
O17          V23   1.894       .  S
O17          C27   1.262       .  A
O18          V23   1.896       .  S
O18          C28   1.263       .  A
O19          V24   1.908       .  S
O19          C28   1.266       .  A
O20          V24   1.912       .  S
O20          C27   1.269       .  A
O21          V24   1.894       .  S
O21          C26   1.262       .  A
O22          V24   1.892       .  S
O22          C25   1.263       .  A
V23          V24   2.085       .  T
C25         C539   1.481       .  S
C26         C476   1.486       .  S
C27         C486   1.493       .  S
C28         C496   1.479       .  S
O29          V37   1.908       .  S
O29          C39   1.266       .  A
O30          V37   1.906       .  S
O30          C40   1.267       .  A
O31          V37   1.895       .  S
O31          C41   1.264       .  A
O32          V37   1.898       .  S
O32          C42   1.265       .  A
O33          V38   1.904       .  S
O33          C42   1.265       .  A
O34          V38   1.904       .  S
O34          C41   1.265       .  A
O35          V38   1.886       .  S
O35          C40   1.260       .  A
O36          V38   1.885       .  S
O36          C39   1.261       .  A
V37          V38   2.084       .  T
C39         C466   1.473       .  S
C40         C446   1.482       .  S
C41         C456   1.486       .  S
C42         C499   1.491       .  S
O43          V51   1.915       .  S
O43          C53   1.268       .  A
O44          V51   1.917       .  S
O44          C54   1.270       .  A
O45          V51   1.889       .  S
O45          C55   1.262       .  A
O46          V51   1.888       .  S
O46          C56   1.263       .  A
O47          V52   1.905       .  S
O47          C56   1.265       .  A
O48          V52   1.903       .  S
O48          C55   1.265       .  A
O49          V52   1.877       .  S
O49          C54   1.257       .  A
O50          V52   1.876       .  S
O50          C53   1.259       .  A
V51          V52   2.084       .  T
C53         C469   1.473       .  S
C54         C416   1.486       .  S
C55         C436   1.476       .  S
C56         C426   1.488       .  S
O57          V65   1.918       .  S
O57          C67   1.268       .  A
O58          V65   1.913       .  S
O58          C68   1.269       .  A
O59          V65   1.892       .  S
O59          C69   1.263       .  A
O60          V65   1.894       .  S
O60          C70   1.264       .  A
O61          V66   1.901       .  S
O61          C70   1.264       .  A
O62          V66   1.902       .  S
O62          C69   1.265       .  A
O63          V66   1.888       .  S
O63          C68   1.260       .  A
O64          V66   1.887       .  S
O64          C67   1.262       .  A
V65          V66   2.083       .  T
C67         C409   1.481       .  S
C68         C479   1.487       .  S
C69         C386   1.485       .  S
C70         C396   1.488       .  S
O71          V79   1.916       .  S
O71          C81   1.267       .  A
O72          V79   1.913       .  S
O72          C82   1.268       .  A
O73          V79   1.896       .  S
O73          C83   1.264       .  A
O74          V79   1.895       .  S
O74          C84   1.263       .  A
O75          V80   1.893       .  S
O75          C84   1.265       .  A
O76          V80   1.895       .  S
O76          C83   1.264       .  A
O77          V80   1.894       .  S
O77          C82   1.262       .  A
O78          V80   1.888       .  S
O78          C81   1.263       .  A
V79          V80   2.085       .  T
C81         C406   1.484       .  S
C82         C509   1.478       .  S
C83         C439   1.476       .  S
C84         C376   1.477       .  S
O85          V93   1.918       .  S
O85          C95   1.269       .  A
O86          V93   1.912       .  S
O86          C96   1.269       .  A
O87          V93   1.890       .  S
O87          C97   1.261       .  A
O88          V93   1.890       .  S
O88          C98   1.260       .  A
O89          V94   1.910       .  S
O89          C98   1.269       .  A
O90          V94   1.918       .  S
O90          C97   1.270       .  A
O91          V94   1.880       .  S
O91          C96   1.258       .  A
O92          V94   1.877       .  S
O92          C95   1.259       .  A
V93          V94   2.085       .  T
C95         C366   1.480   1_565  S
C96         C419   1.469       .  S
C97         C529   1.486       .  S
C98         C356   1.489       .  S
O99         V107   1.910       .  S
O99         C109   1.266       .  A
O100        V107   1.905       .  S
O100        C110   1.266       .  A
O101        V107   1.890       .  S
O101        C111   1.261       .  A
O102        V107   1.893       .  S
O102        C112   1.262       .  A
O103        V108   1.902       .  S
O103        C112   1.265       .  A
O104        V108   1.902       .  S
O104        C111   1.266       .  A
O105        V108   1.888       .  S
O105        C110   1.261       .  A
O106        V108   1.884       .  S
O106        C109   1.263       .  A
V107        V108   2.087       .  T
C109        C369   1.481       .  S
C110        C449   1.475       .  S
C111        C349   1.479       .  S
C112        C399   1.467       .  S
O113        V121   1.914       .  S
O113        C123   1.267       .  A
O114        V121   1.911       .  S
O114        C124   1.269       .  A
O115        V121   1.884       .  S
O115        C125   1.262       .  A
O116        V121   1.893       .  S
O116        C126   1.261       .  A
O117        V122   1.912       .  S
O117        C126   1.269       .  A
O118        V122   1.912       .  S
O118        C125   1.267       .  A
O119        V122   1.885       .  S
O119        C124   1.258       .  A
O120        V122   1.884       .  S
O120        C123   1.261       .  A
V121        V122   2.083       .  T
C123        C339   1.475       .  S
C124        C319   1.487       .  S
C125        C389   1.484       .  S
C126        C329   1.489       .  S
O127        V135   1.916       .  S
O127        C137   1.268       .  A
O128        V135   1.914       .  S
O128        C138   1.268       .  A
O129        V135   1.890       .  S
O129        C139   1.261       .  A
O130        V135   1.881       .  S
O130        C140   1.259       .  A
O131        V136   1.908       .  S
O131        C140   1.268       .  A
O132        V136   1.907       .  S
O132        C139   1.267       .  A
O133        V136   1.883       .  S
O133        C138   1.261       .  A
O134        V136   1.882       .  S
O134        C137   1.260       .  A
V135        V136   2.084       .  T
C137        C336   1.474       .  S
C138        C296   1.486       .  S
C139        C306   1.478       .  S
C140        C379   1.483       .  S
O141        V149   1.916   1_455  S
O141        C151   1.268       .  A
O142        V149   1.909       .  S
O142        C152   1.269       .  A
O143        V149   1.897       .  S
O143        C153   1.263       .  A
O144        V149   1.891       .  S
O144        C154   1.262       .  A
O145        V150   1.905       .  S
O145        C154   1.266       .  A
O146        V150   1.905       .  S
O146        C153   1.266       .  A
O147        V150   1.889       .  S
O147        C152   1.260       .  A
O148        V150   1.890       .  S
O148        C151   1.262   1_655  A
V149        V150   2.086       .  T
C151        C289   1.477       .  S
C152        C266   1.488       .  S
C153        C279   1.478       .  S
C154        C429   1.476       .  S
O155        V163   1.915       .  S
O155        C165   1.267       .  A
O156        V163   1.914       .  S
O156        C166   1.268       .  A
O157        V163   1.886       .  S
O157        C167   1.262       .  A
O158        V163   1.896       .  S
O158        C168   1.262       .  A
O159        V164   1.909       .  S
O159        C168   1.268       .  A
O160        V164   1.914       .  S
O160        C167   1.267       .  A
O161        V164   1.889       .  S
O161        C166   1.261       .  A
O162        V164   1.889       .  S
O162        C165   1.261       .  A
V163        V164   2.085       .  T
C165        C286   1.476       .  S
C166        C256   1.478       .  S
C167        C459   1.489       .  S
C168        C326   1.486       .  S
O169        V177   1.914   1_565  S
O169        C179   1.267       .  A
O170        V177   1.913       .  S
O170        C180   1.267       .  A
O171        V177   1.887       .  S
O171        C181   1.260       .  A
O172        V177   1.893       .  S
O172        C182   1.264       .  A
O173        V178   1.910       .  S
O173        C182   1.267       .  A
O174        V178   1.907       .  S
O174        C181   1.268       .  A
O175        V178   1.891       .  S
O175        C180   1.260       .  A
O176        V178   1.888       .  S
O176        C179   1.262   1_545  A
V177        V178   2.084       .  T
C179        C246   1.477       .  S
C180        C259   1.469       .  S
C181        C346   1.486       .  S
C182        C239   1.489       .  S
O183        V191   1.914       .  S
O183        C193   1.268       .  A
O184        V191   1.912       .  S
O184        C194   1.268       .  A
O185        V191   1.893       .  S
O185        C195   1.261       .  A
O186        V191   1.888       .  S
O186        C196   1.261       .  A
O187        V192   1.909       .  S
O187        C196   1.268       .  A
O188        V192   1.907       .  S
O188        C195   1.268       .  A
O189        V192   1.885       .  S
O189        C194   1.260       .  A
O190        V192   1.884       .  S
O190        C193   1.261       .  A
V191        V192   2.084       .  T
C193        C249   1.477       .  S
C194        C269   1.476       .  S
C195        C309   1.485       .  S
C196        C359   1.486       .  S
O197        V205   1.913   1_455  S
O197        C207   1.267       .  A
O198        V205   1.908       .  S
O198        C208   1.267       .  A
O199        V205   1.888       .  S
O199        C209   1.263       .  A
O200        V205   1.891       .  S
O200        C210   1.261       .  A
O201        V206   1.918       .  S
O201        C210   1.270       .  A
O202        V206   1.917       .  S
O202        C209   1.269       .  A
O203        V206   1.887       .  S
O203        C208   1.259       .  A
O204        V206   1.886       .  S
O204        C207   1.261   1_655  A
V205        V206   2.083       .  T
C207        C226   1.477       .  S
C208        C299   1.468       .  S
C209        C276   1.494       .  S
C210        C519   1.496       .  S
O211        V219   1.910   1_565  S
O211        C221   1.266       .  A
O212        V219   1.904       .  S
O212        C222   1.265       .  A
O213        V219   1.900       .  S
O213        C223   1.264       .  A
O214        V219   1.899       .  S
O214        C224   1.264       .  A
O215        V220   1.906       .  S
O215        C224   1.266       .  A
O216        V220   1.907       .  S
O216        C223   1.267       .  A
O217        V220   1.890       .  S
O217        C222   1.261       .  A
O218        V220   1.889       .  S
O218        C221   1.263   1_545  A
V219        V220   2.086       .  T
C221        C229   1.480       .  S
C222        C316   1.470       .  S
C223        C489   1.491       .  S
C224        C236   1.479       .  S
C225        C226   1.404       .  A
C225        C230   1.404       .  A
C225        H232   1.083       .  S
C226        C227   1.410       .  A
C227        C228   1.395       .  A
C227       Br234   1.923       .  S
C228        C229   1.404       .  A
C228        H233   1.083       .  S
C229        C230   1.413       .  A
C230       Br231   1.918       .  S
C235        C236   1.405       .  A
C235        C240   1.402       .  A
C235        H242   1.084       .  S
C236        C237   1.407       .  A
C237        C238   1.399       .  A
C237       Br244   1.920       .  S
C238        C239   1.409       .  A
C238        H243   1.083       .  S
C239        C240   1.414       .  A
C240       Br241   1.920       .  S
C245        C246   1.403       .  A
C245        C250   1.396       .  A
C245        H252   1.084       .  S
C246        C247   1.411       .  A
C247        C248   1.404       .  A
C247       Br254   1.919       .  S
C248        C249   1.405       .  A
C248        H253   1.084       .  S
C249        C250   1.411       .  A
C250       Br251   1.923       .  S
C255        C256   1.404       .  A
C255        C260   1.395       .  A
C255        H262   1.084       .  S
C256        C257   1.411       .  A
C257        C258   1.405       .  A
C257       Br264   1.919       .  S
C258        C259   1.404       .  A
C258        H263   1.084       .  S
C259        C260   1.404       .  A
C260       Br261   1.918       .  S
C265        C266   1.405       .  A
C265        C270   1.397       .  A
C265        H272   1.083       .  S
C266        C267   1.421       .  A
C267        C268   1.400       .  A
C267       Br274   1.923       .  S
C268        C269   1.399       .  A
C268        H273   1.084       .  S
C269        C270   1.411       .  A
C270       Br271   1.922       .  S
C275        C276   1.412       .  A
C275        C280   1.398       .  A
C275        H282   1.083       .  S
C276        C277   1.416       .  A
C277        C278   1.403       .  A
C277       Br284   1.920       .  S
C278        C279   1.405       .  A
C278        H283   1.084       .  S
C279        C280   1.404       .  A
C280       Br281   1.920       .  S
C285        C286   1.404       .  A
C285        C290   1.404       .  A
C285        H292   1.084       .  S
C286        C287   1.408       .  A
C287        C288   1.399       .  A
C287       Br294   1.920       .  S
C288        C289   1.403       .  A
C288        H293   1.084       .  S
C289        C290   1.411       .  A
C290       Br291   1.919       .  S
C295        C296   1.409       .  A
C295        C300   1.394       .  A
C295        H302   1.083       .  S
C296        C297   1.415       .  A
C297        C298   1.403       .  A
C297       Br304   1.920       .  S
C298        C299   1.404       .  A
C298        H303   1.084       .  S
C299        C300   1.403       .  A
C300       Br301   1.921       .  S
C305        C306   1.401       .  A
C305        C310   1.400       .  A
C305        H312   1.083       .  S
C306        C307   1.413       .  A
C307        C308   1.398       .  A
C307       Br314   1.922       .  S
C308        C309   1.404       .  A
C308        H313   1.083       .  S
C309        C310   1.418       .  A
C310       Br311   1.922       .  S
C315        C316   1.398       .  A
C315        C320   1.398       .  A
C315        H322   1.084       .  S
C316        C317   1.407       .  A
C317        C318   1.398       .  A
C317       Br324   1.920       .  S
C318        C319   1.407       .  A
C318        H323   1.083       .  S
C319        C320   1.422       .  A
C320       Br321   1.924       .  S
C325        C326   1.402       .  A
C325        C330   1.401       .  A
C325        H332   1.084       .  S
C326        C327   1.416       .  A
C327        C328   1.402       .  A
C327       Br334   1.922       .  S
C328        C329   1.404       .  A
C328        H333   1.083       .  S
C329        C330   1.418       .  A
C330       Br331   1.922       .  S
C335        C336   1.405       .  A
C335        C340   1.405       .  A
C335        H342   1.083       .  S
C336        C337   1.409       .  A
C337        C338   1.394       .  A
C337       Br344   1.922       .  S
C338        C339   1.402       .  A
C338        H343   1.084       .  S
C339        C340   1.412       .  A
C340       Br341   1.919       .  S
C345        C346   1.405       .  A
C345        C350   1.398       .  A
C345        H352   1.083       .  S
C346        C347   1.419       .  A
C347        C348   1.397   1_554  A
C347       Br354   1.924       .  S
C348        C349   1.401       .  A
C348        H353   1.084       .  S
C349        C350   1.412   1_556  A
C350       Br351   1.921   1_554  S
C355        C356   1.403       .  A
C355        C360   1.398   1_556  A
C355        H362   1.083       .  S
C356        C357   1.419   1_556  A
C357        C358   1.400       .  A
C357       Br364   1.923       .  S
C358        C359   1.404       .  A
C358        H363   1.083       .  S
C359        C360   1.416       .  A
C360       Br361   1.923       .  S
C365        C366   1.405       .  A
C365        C370   1.405       .  A
C365        H372   1.083       .  S
C366        C367   1.413       .  A
C367        C368   1.392       .  A
C367       Br374   1.925   1_545  S
C368        C369   1.402       .  A
C368        H373   1.083       .  S
C369        C370   1.414       .  A
C370       Br371   1.918       .  S
C375        C376   1.401       .  A
C375        C380   1.393       .  A
C375        H382   1.084       .  S
C376        C377   1.412       .  A
C377        C378   1.399       .  A
C377       Br384   1.920       .  S
C378        C379   1.406       .  A
C378        H383   1.083       .  S
C379        C380   1.418       .  A
C380       Br381   1.925       .  S
C385        C386   1.409       .  A
C385        C390   1.400       .  A
C385        H392   1.083       .  S
C386        C387   1.413       .  A
C387        C388   1.396       .  A
C387       Br394   1.923       .  S
C388        C389   1.406       .  A
C388        H393   1.084       .  S
C389        C390   1.411       .  A
C390       Br391   1.921       .  S
C395        C396   1.411       .  A
C395        C400   1.397       .  A
C395        H402   1.083       .  S
C396        C397   1.418       .  A
C397        C398   1.399       .  A
C397       Br404   1.922       .  S
C398        C399   1.400       .  A
C398        H403   1.084       .  S
C399        C400   1.403       .  A
C400       Br401   1.920       .  S
C405        C406   1.403       .  A
C405        C410   1.394       .  A
C405        H412   1.090       .  S
C406        C407   1.414       .  A
C407        C408   1.406       .  A
C407       Br414   1.917       .  S
C408        C409   1.405       .  A
C408        H413   1.090       .  S
C409        C410   1.410       .  A
C410       Br411   1.922       .  S
C415        C416   1.406       .  A
C415        C420   1.401       .  A
C415        H422   1.083       .  S
C416        C417   1.422       .  A
C417        C418   1.395       .  A
C417       Br424   1.925       .  S
C418        C419   1.394       .  A
C418        H423   1.084       .  S
C419        C420   1.411       .  A
C420       Br421   1.922       .  S
C425        C426   1.408   1_554  A
C425        C430   1.396       .  A
C425        H432   1.083       .  S
C426        C427   1.416       .  A
C427        C428   1.400   1_556  A
C427       Br434   1.921   1_655  S
C428        C429   1.404       .  A
C428        H433   1.083   1_655  S
C429        C430   1.408       .  A
C430       Br431   1.921       .  S
C435        C436   1.404       .  A
C435        C440   1.396       .  A
C435        H442   1.084       .  S
C436        C437   1.410       .  A
C437        C438   1.398       .  A
C437       Br444   1.920       .  S
C438        C439   1.406       .  A
C438        H443   1.084       .  S
C439        C440   1.411       .  A
C440       Br441   1.922       .  S
C445        C446   1.404       .  A
C445        C450   1.397       .  A
C445        H452   1.083       .  S
C446        C447   1.417       .  A
C447        C448   1.397       .  A
C447       Br454   1.923       .  S
C448        C449   1.400       .  A
C448        H453   1.083       .  S
C449        C450   1.412       .  A
C450       Br451   1.922       .  S
C455        C456   1.408   1_554  A
C455        C460   1.402       .  A
C455        H462   1.083       .  S
C456        C457   1.412       .  A
C457        C458   1.396   1_556  A
C457       Br464   1.922       .  S
C458        C459   1.408       .  A
C458        H463   1.083       .  S
C459        C460   1.413       .  A
C460       Br461   1.920       .  S
C465        C466   1.405   1_655  A
C465        C470   1.402       .  A
C465        H472   1.083       .  S
C466        C467   1.409   1_455  A
C467        C468   1.393       .  A
C467       Br474   1.923   1_655  S
C468        C469   1.404       .  A
C468        H473   1.083       .  S
C469        C470   1.410       .  A
C470       Br471   1.918       .  S
C475        C476   1.403       .  A
C475        C480   1.399       .  A
C475        H482   1.084       .  S
C476        C477   1.416       .  A
C477        C478   1.401       .  A
C477       Br484   1.921       .  S
C478        C479   1.404       .  A
C478        H483   1.084       .  S
C479        C480   1.417       .  A
C480       Br481   1.923       .  S
C485        C486   1.406       .  A
C485        C490   1.402       .  A
C485        H492   1.085       .  S
C486        C487   1.418       .  A
C487        C488   1.401       .  A
C487       Br494   1.923       .  S
C488        C489   1.405       .  A
C488        H493   1.085       .  S
C489        C490   1.415       .  A
C490       Br491   1.921   1_545  S
C495        C496   1.403       .  A
C495        C500   1.401       .  A
C495        H502   1.083       .  S
C496        C497   1.407       .  A
C497        C498   1.400       .  A
C497       Br504   1.919       .  S
C498        C499   1.410       .  A
C498        H503   1.083       .  S
C499        C500   1.417       .  A
C500       Br501   1.922       .  S
C505        C506   1.411       .  A
C505        C510   1.397       .  A
C505        H512   1.083       .  S
C506        C507   1.415       .  A
C507        C508   1.405       .  A
C507       Br514   1.920       .  S
C508        C509   1.405       .  A
C508        H513   1.083       .  S
C509        C510   1.405       .  A
C510       Br511   1.920       .  S
C515        C516   1.400       .  A
C515        C520   1.399       .  A
C515        H522   1.084       .  S
C516        C517   1.410       .  A
C517        C518   1.405       .  A
C517       Br524   1.919       .  S
C518        C519   1.409       .  A
C518        H523   1.083       .  S
C519        C520   1.422       .  A
C520       Br521   1.924       .  S
C525        C526   1.404       .  A
C525        C530   1.399       .  A
C525        H532   1.084       .  S
C526        C527   1.419       .  A
C527        C528   1.405       .  A
C527       Br534   1.921       .  S
C528        C529   1.403       .  A
C528        H533   1.084       .  S
C529        C530   1.414       .  A
C530       Br531   1.922       .  S
C535        C536   1.404       .  A
C535        C540   1.406       .  A
C535        H542   1.084       .  S
C536        C537   1.411       .  A
C537        C538   1.398       .  A
C537       Br544   1.921   1_545  S
C538        C539   1.403   1_655  A
C538        H543   1.084   1_655  S
C539        C540   1.412   1_455  A
C540       Br541   1.917       .  S
