geometry optimzed in LAMMPS
_audit_creation_date              2020-12-01 
_audit_creation_method            'lammps2cif' 
_symmetry_space_group_name_H-M    'P1' 
_symmetry_Int_Tables_number       1 
_symmetry_cell_setting            triclinic 
loop_ 
_symmetry_equiv_pos_as_xyz 
  x,y,z 
_cell_length_a                    74.50682883 
_cell_length_b                    74.70756517731431 
_cell_length_c                    33.76946393413258 
_cell_angle_alpha                 95.50552865881838 
_cell_angle_beta                  84.48811270658416 
_cell_angle_gamma                 126.44408504325459 
loop_ 
_atom_site_label 
_atom_site_type_symbol 
_atom_site_fract_x 
_atom_site_fract_y 
_atom_site_fract_z 
_atom_site_charge 
O1          O  0.75747390  0.04193347  0.88490312    -0.57500
C2          C  0.76609431  0.06683237  0.03441015     0.75100
O3          O  0.77480966  0.02338796  0.93760839    -0.58600
C4          C  0.73837675  0.03787678  0.88976442     0.75100
C5          C  0.81382345  0.09254323  0.93571750     0.77500
Cd6        Cd  0.76949324  0.05333125  0.95285901     1.37500
O7          O  0.75982184  0.07230495  0.00709184    -0.57500
O8          O  0.79664514  0.09224767  0.93640492    -0.56300
C9          C  0.76166544  0.01195795  0.96629460     0.77500
O10         O  0.81044669  0.07411317  0.94019016    -0.58700
O11         O  0.77282092  0.05502226  0.02347146    -0.57100
O12         O  0.73320615  0.04181868  0.92475816    -0.57100
O13         O  0.75293764  0.01995044  0.98786958    -0.56300
O14         O  0.76422742  0.07206401  0.29642080    -0.57500
C15         C  0.73527398  0.05024678  0.40483380     0.75100
O16         O  0.76489042  0.12390247  0.37921539    -0.58600
C17         C  0.76535930  0.08416760  0.27086551     0.75100
C18         C  0.70826142  0.07363778  0.32655953     0.77500
Cd19       Cd  0.74985279  0.08568352  0.35169328     1.37500
O20         O  0.74952117  0.05497824  0.37627748    -0.57500
O21         O  0.72159604  0.07131726  0.30503531    -0.56300
C22         C  0.78415757  0.12932907  0.38441251     0.77500
O23         O  0.71458919  0.08303584  0.36083189    -0.58700
O24         O  0.72779245  0.06174564  0.40865911    -0.57100
O25         O  0.76122417  0.09789585  0.28375665    -0.57100
O26         O  0.78706226  0.11431887  0.37622289    -0.56300
O27         O  0.95886321  0.27250925  0.31676400    -0.57500
C28         C  0.97720756  0.30094709  0.43344468     0.75100
O29         O  0.93951605  0.31565956  0.38697140    -0.58600
C30         C  0.94613357  0.27083361  0.29182058     0.75100
C31         C  0.90247771  0.24456797  0.40006720     0.77500
Cd32       Cd  0.94389752  0.28477061  0.37400348     1.37500
O33         O  0.96040003  0.30130928  0.43961461    -0.57500
O34         O  0.92093295  0.24717195  0.39718736    -0.56300
C35         C  0.95296528  0.32648998  0.35807565     0.77500
O36         O  0.90311343  0.26130199  0.39297453    -0.58700
O37         O  0.97874348  0.29281544  0.39961306    -0.57100
O38         O  0.93216007  0.27454663  0.30549399    -0.57100
O39         O  0.96073621  0.31743223  0.33699045    -0.56300
O40         O  0.98121958  0.27405992  0.90487350    -0.57500
C41         C  0.95401920  0.26231193  0.05400729     0.75100
O42         O  0.94191672  0.21845911  0.95244068    -0.58600
C43         C  0.98178995  0.29138098  0.90945708     0.75100
C44         C  0.00648286  0.26626818  0.98172468     0.77500
Cd45       Cd  0.96509276  0.25896024  0.97056028     1.37500
O46         O  0.95261369  0.27300006  0.02883699    -0.57500
O47         O  0.99984410  0.27673219  0.00153758    -0.56300
C48         C  0.92427047  0.21685653  0.94855258     0.77500
O49         O  0.99356470  0.25149328  0.95606306    -0.58700
O50         O  0.96002433  0.25018695  0.04024169    -0.57100
O51         O  0.97375428  0.29384923  0.94266097    -0.57100
O52         O  0.92595541  0.23480390  0.95292094    -0.56300
O53         O  0.89822849  0.57827900  0.89412018    -0.57500
C54         C  0.91957441  0.61538967  0.98728175     0.75100
O55         O  0.92291957  0.65326829  0.93264911    -0.58600
C56         C  0.90153892  0.58142434  0.85713867     0.75100
C57         C  0.86083711  0.60782779  0.91079359     0.77500
Cd58       Cd  0.90247002  0.61345359  0.91352730     1.37500
O59         O  0.89882885  0.60621813  0.98578942    -0.57500
O60         O  0.86395859  0.59960928  0.93816602    -0.56300
C61         C  0.93912599  0.65978407  0.90751088     0.77500
O62         O  0.87670178  0.61809718  0.88497384    -0.58700
O63         O  0.93082327  0.62019775  0.95450782    -0.57100
O64         O  0.90431824  0.59872714  0.84658143    -0.57100
O65         O  0.93688538  0.64534922  0.88131422    -0.56300
O66         O  0.98845524  0.67812512  0.20434151    -0.57500
C67         C  0.01535051  0.69121586  0.30685672     0.75100
O68         O  0.05101033  0.72321750  0.20551159    -0.58600
C69         C  0.99322739  0.68758457  0.17178562     0.75100
C70         C  0.99280810  0.73261009  0.26353919     0.77500
Cd71       Cd  0.01648065  0.71357236  0.24145500     1.37500
O72         O  0.01405472  0.68321552  0.27148930    -0.57500
O73         O  0.98938523  0.71659517  0.28115213    -0.56300
C74         C  0.06429601  0.73871468  0.22959468     0.77500
O75         O  0.00805639  0.74072675  0.23606767    -0.58700
O76         O  0.01519253  0.70811512  0.31153490    -0.57100
O77         O  0.00825015  0.70838278  0.17246977    -0.57100
O78         O  0.05576838  0.74514027  0.25604932    -0.56300
O79         O  0.82174665  0.72406921  0.25932517    -0.57500
C80         C  0.85395687  0.77410762  0.34318544     0.75100
O81         O  0.84538425  0.70513619  0.28149117    -0.58600
C82         C  0.82892076  0.72914537  0.22372516     0.75100
C83         C  0.90225631  0.75619807  0.27747032     0.77500
Cd84       Cd  0.85758571  0.74362337  0.28957605     1.37500
O85         O  0.85324946  0.77418685  0.30586665    -0.57500
O86         O  0.89366100  0.75936943  0.25083388    -0.56300
C87         C  0.83220308  0.69854729  0.31199991     0.77500
O88         O  0.89108481  0.74956233  0.31015900    -0.58700
O89         O  0.85826422  0.76153401  0.35489318    -0.57100
O90         O  0.84996414  0.74285509  0.21818725    -0.57100
O91         O  0.83313904  0.71344440  0.33509155    -0.56300
O92         O  0.72850394  0.65814937  0.92962843    -0.57500
C93         C  0.76205019  0.66809661  0.02615614     0.75100
O94         O  0.69946650  0.60007884  0.94759999    -0.58600
C95         C  0.73203108  0.65261595  0.89471294     0.75100
C96         C  0.75914223  0.61528599  0.95154448     0.77500
Cd97       Cd  0.73567631  0.63510881  0.96381635     1.37500
O98         O  0.74399573  0.64931427  0.03372963    -0.57500
O99         O  0.76141150  0.62873410  0.92794270    -0.56300
C100        C  0.68809179  0.60487666  0.96989193     0.77500
O101        O  0.74492596  0.60991950  0.98044251    -0.58700
O102        O  0.76732415  0.67219532  0.98964402    -0.57100
O103        O  0.73955106  0.64116251  0.89221700    -0.57100
O104        O  0.69867441  0.62100982  0.99513918    -0.56300
O105        O  0.61808478  0.85591589  0.01903516    -0.57500
C106        C  0.63431989  0.87453114  0.87579857     0.75100
O107        O  0.66951234  0.87305676  0.92694002    -0.58600
C108        C  0.60331604  0.85859756  0.01351463     0.75100
C109        C  0.61940315  0.81132669  0.94829372     0.77500
Cd110      Cd  0.63018107  0.85522357  0.94913899     1.37500
O111        O  0.63572318  0.88406254  0.90965516    -0.57500
O112        O  0.60866498  0.81480088  0.92712291    -0.56300
C113        C  0.67754539  0.88740391  0.95558425     0.77500
O114        O  0.63377100  0.82762351  0.96997473    -0.58700
O115        O  0.62753072  0.85441360  0.87574248    -0.57100
O116        O  0.59988334  0.85872567  0.97749870    -0.57100
O117        O  0.66384580  0.88527740  0.98340163    -0.56300
O118        O  0.71814340  0.95317276  0.68618019    -0.57500
C119        C  0.72757373  0.96928096  0.55217856     0.75100
O120        O  0.76808953  0.00214165  0.61163324    -0.58600
C121        C  0.70303625  0.93298397  0.67718775     0.75100
C122        C  0.76604115  0.94413462  0.61284880     0.77500
Cd123      Cd  0.74081326  0.96230716  0.62350435     1.37500
O124        O  0.71770636  0.96815421  0.58559751    -0.57500
O125        O  0.75347175  0.94185286  0.58724476    -0.56300
C126        C  0.76468005  0.00865412  0.64553497     0.77500
O127        O  0.76785359  0.95572846  0.64424535    -0.58700
O128        O  0.74111288  0.96427462  0.55129502    -0.57100
O129        O  0.70463997  0.92611466  0.64213773    -0.57100
O130        O  0.75443818  0.99422153  0.67168864    -0.56300
O131        O  0.78396578  0.80548738  0.65880160    -0.57500
C132        C  0.80714292  0.80884516  0.53135524     0.75100
O133        O  0.73609938  0.79311023  0.60127310    -0.58600
C134        C  0.76817074  0.78487739  0.66051793     0.75100
C135        C  0.78591942  0.85202138  0.60589965     0.77500
Cd136      Cd  0.77580881  0.80836341  0.59055780     1.37500
O137        O  0.80875461  0.80838670  0.56820167    -0.57500
O138        O  0.78894105  0.84296457  0.63166832    -0.56300
C139        C  0.72942297  0.77822333  0.57344709     0.77500
O140        O  0.77949860  0.84145896  0.57262762    -0.58700
O141        O  0.79181109  0.81001606  0.52235232    -0.57100
O142        O  0.75809408  0.77513545  0.62878292    -0.57100
O143        O  0.74439039  0.77917086  0.55043297    -0.56300
O144        O  0.69392035  0.69939199  0.96532181    -0.57500
C145        C  0.69612591  0.71905322  0.85212016     0.75100
O146        O  0.63585162  0.66852944  0.95118410    -0.58600
C147        C  0.68922360  0.70555023  0.99851022     0.75100
C148        C  0.65150557  0.72825925  0.94059451     0.77500
Cd149      Cd  0.66981816  0.70346741  0.92651044     1.37500
O150        O  0.70558880  0.72645352  0.88507159    -0.57500
O151        O  0.67039039  0.73515934  0.95206398    -0.56300
C152        C  0.63980023  0.65609974  0.93046412     0.77500
O153        O  0.64104166  0.70992993  0.92026785    -0.58700
O154        O  0.67511242  0.70493496  0.85420364    -0.57100
O155        O  0.67816347  0.71330092  0.99720648    -0.57100
O156        O  0.65506299  0.66521917  0.90329256    -0.56300
O157        O  0.68440082  0.64979298  0.21133848    -0.57500
C158        C  0.67243538  0.62372013  0.32590728     0.75100
O159        O  0.65609461  0.57907262  0.22198065    -0.58600
C160        C  0.69384894  0.64844926  0.17905996     0.75100
C161        C  0.71915159  0.61995241  0.25424012     0.77500
Cd162      Cd  0.68119428  0.61874567  0.24216489     1.37500
O163        O  0.66465623  0.60494611  0.30825472    -0.57500
O164        O  0.71582845  0.63374959  0.27056435    -0.56300
C165        C  0.63925216  0.57916280  0.21994409     0.77500
O166        O  0.70500925  0.60529491  0.22992184    -0.58700
O167        O  0.68306232  0.64042770  0.30418809    -0.57100
O168        O  0.69811077  0.63433210  0.17730059    -0.57100
O169        O  0.64228722  0.59773620  0.22638595    -0.56300
O170        O  0.66411184  0.63159842  0.58120234    -0.57500
C171        C  0.67625670  0.63815180  0.69613283     0.75100
O172        O  0.64094081  0.65606343  0.66598138    -0.58600
C173        C  0.64891756  0.61488952  0.56111787     0.75100
C174        C  0.60014487  0.58399934  0.67370478     0.77500
Cd175      Cd  0.64095078  0.62353622  0.64322453     1.37500
O176        O  0.67404571  0.62668770  0.66430015    -0.57500
O177        O  0.61802275  0.58562499  0.66664122    -0.56300
C178        C  0.64158333  0.66148976  0.63120684     0.77500
O179        O  0.60113743  0.60105031  0.66773168    -0.58700
O180        O  0.66270858  0.64315083  0.70242892    -0.57100
O181        O  0.63071144  0.60114610  0.57995596    -0.57100
O182        O  0.63925885  0.64798158  0.60304512    -0.56300
O183        O  0.44578628  0.42969637  0.24378617    -0.57500
C184        C  0.47616985  0.44247730  0.34862979     0.75100
O185        O  0.47352197  0.39389452  0.25105590    -0.58600
C186        C  0.44395485  0.41985805  0.21003073     0.75100
C187        C  0.52132345  0.46316520  0.23943365     0.77500
Cd188      Cd  0.47625699  0.42884500  0.26581790     1.37500
O189        O  0.46453702  0.44310842  0.32443533    -0.57500
O190        O  0.50607640  0.46597938  0.24263611    -0.56300
C191        C  0.45927268  0.38389631  0.27952290     0.77500
O192        O  0.51549450  0.44401562  0.24659027    -0.58700
O193        O  0.48887001  0.43733554  0.33374357    -0.57100
O194        O  0.45773303  0.41524299  0.20136797    -0.57100
O195        O  0.45356547  0.39478998  0.30063942    -0.56300
O196        O  0.43606405  0.39197117  0.67714071    -0.57500
C197        C  0.45843596  0.43278665  0.58375291     0.75100
O198        O  0.40803085  0.42546252  0.68810088    -0.58600
C199        C  0.43319730  0.39281051  0.71469350     0.75100
C200        C  0.47867704  0.47217643  0.69206449     0.77500
Cd201      Cd  0.44254477  0.42798886  0.66614233     1.37500
O202        O  0.44740081  0.43981290  0.59900603    -0.57500
O203        O  0.48055914  0.45640989  0.68514620    -0.56300
C204        C  0.39827600  0.41459085  0.65646952     0.77500
O205        O  0.45926249  0.46717442  0.69031834    -0.58700
O206        O  0.46238839  0.42315506  0.60682755    -0.57100
O207        O  0.43549828  0.41019503  0.72979902    -0.57100
O208        O  0.40898447  0.41032288  0.63105882    -0.56300
O209        O  0.09175520  0.69593386  0.98906528    -0.57500
C210        C  0.09775692  0.71054957  0.87732567     0.75100
O211        O  0.08110911  0.74043632  0.91610129    -0.58600
C212        C  0.08185098  0.69650437  0.02128285     0.75100
C213        C  0.13693727  0.76635610  0.98011298     0.77500
Cd214      Cd  0.09492977  0.72632567  0.95767744     1.37500
O215        O  0.11496692  0.72517544  0.89615384    -0.57500
O216        O  0.13425606  0.74838148  0.96855698    -0.56300
C217        C  0.06306063  0.73277332  0.93657359     0.77500
O218        O  0.11962300  0.76594120  0.98281287    -0.58700
O219        O  0.07925356  0.70117255  0.89717814    -0.57100
O220        O  0.07639164  0.70968880  0.02309262    -0.57100
O221        O  0.06123803  0.72502032  0.96969772    -0.56300
O222        O  0.06411968  0.69548208  0.53616661    -0.57500
C223        C  0.09015017  0.69588632  0.64094388     0.75100
O224        O  0.11218928  0.67510260  0.53715877    -0.58600
C225        C  0.06460312  0.68912884  0.50016334     0.75100
C226        C  0.13295334  0.74039247  0.54019470     0.77500
Cd227      Cd  0.09563124  0.69584967  0.55494584     1.37500
O228        O  0.07416913  0.68963512  0.61935857    -0.57500
O229        O  0.11520913  0.73546089  0.55915779    -0.56300
C230        C  0.09362849  0.65667991  0.54451011     0.77500
O231        O  0.13345211  0.72429378  0.52634396    -0.58700
O232        O  0.10855160  0.70233477  0.62272804    -0.57100
O233        O  0.07911667  0.68564568  0.49005486    -0.57100
O234        O  0.07697085  0.65689556  0.55438934    -0.56300
O235        O  0.32234160  0.90410457  0.86515959    -0.57500
C236        C  0.34372879  0.91645996  0.97996075     0.75100
O237        O  0.29656070  0.92853583  0.96661170    -0.58600
C238        C  0.30552751  0.89964675  0.84820728     0.75100
C239        C  0.26515545  0.86485298  0.96275248     0.77500
Cd240      Cd  0.30622901  0.90399151  0.93404633     1.37500
O241        O  0.33816927  0.92928382  0.97711861    -0.57500
O242        O  0.28000415  0.86388572  0.94340035    -0.56300
C243        C  0.30479475  0.94111005  0.93737833     0.77500
O244        O  0.26994337  0.88406879  0.97084481    -0.58700
O245        O  0.33269777  0.89805774  0.96000825    -0.57100
O246        O  0.28899245  0.89522074  0.87077545    -0.57100
O247        O  0.31416239  0.93677416  0.90889484    -0.56300
O248        O  0.28669222  0.93895662  0.53394179    -0.57500
C249        C  0.28875227  0.90915607  0.62312928     0.75100
O250        O  0.26622504  0.86794246  0.50181645    -0.58600
C251        C  0.27986498  0.93460159  0.49889071     0.75100
C252        C  0.32965265  0.92136629  0.51247838     0.77500
Cd253      Cd  0.28508729  0.90519803  0.53756312     1.37500
O254        O  0.27626746  0.91270760  0.60794813    -0.57500
O255        O  0.31698364  0.90297950  0.52916373    -0.56300
C256        C  0.24775072  0.86029664  0.52095168     0.77500
O257        O  0.32079841  0.93042815  0.50341299    -0.58700
O258        O  0.29971733  0.90469737  0.59886551    -0.57100
O259        O  0.27435100  0.91610201  0.48260547    -0.57100
O260        O  0.24707057  0.87351582  0.54622096    -0.56300
O261        O  0.61878925  0.97398228  0.60519142    -0.57500
C262        C  0.65327251  0.99843343  0.71939335     0.75100
O263        O  0.68505848  0.03964871  0.66601114    -0.58600
C264        C  0.63201937  0.97622365  0.57621589     0.75100
C265        C  0.62285380  0.02716546  0.64242527     0.77500
Cd266      Cd  0.64799750  0.00920699  0.64321881     1.37500
O267        O  0.65754824  0.99136221  0.68689861    -0.57500
O268        O  0.61483866  0.00873800  0.65724522    -0.56300
C269        C  0.69515570  0.04223171  0.63239028     0.77500
O270        O  0.64294951  0.03781491  0.62899498    -0.58700
O271        O  0.64271667  0.00665091  0.71687219    -0.57100
O272        O  0.65235100  0.99209158  0.58027228    -0.57100
O273        O  0.68301467  0.03248291  0.60271155    -0.56300
O274        O  0.57267456  0.89091426  0.25784228    -0.57500
C275        C  0.57759692  0.91860996  0.36838588     0.75100
O276        O  0.58369414  0.95988177  0.29483348    -0.58600
C277        C  0.57127657  0.89394706  0.22216910     0.75100
C278        C  0.52413168  0.90821757  0.28355242     0.77500
Cd279      Cd  0.56822000  0.92007301  0.28771312     1.37500
O280        O  0.55790031  0.90936797  0.35802100    -0.57500
O281        O  0.52871035  0.89506329  0.26895967    -0.56300
C282        C  0.60032570  0.96651763  0.27084887     0.77500
O283        O  0.53950536  0.92597958  0.30102390    -0.58700
O284        O  0.59249903  0.92557431  0.34040347    -0.57100
O285        O  0.56818623  0.90852598  0.21761601    -0.57100
O286        O  0.60158790  0.95159482  0.25309206    -0.56300
O287        O  0.41886219  0.95003363  0.17955942    -0.57500
C288        C  0.47676962  0.00973254  0.28132042     0.75100
O289        O  0.42627539  0.98880005  0.28287513    -0.58600
C290        C  0.42708844  0.96534956  0.15559228     0.75100
C291        C  0.44517488  0.94010018  0.26012926     0.77500
Cd292      Cd  0.43983911  0.97223919  0.23803521     1.37500
O293        O  0.47737218  0.99372575  0.26721138    -0.57500
O294        O  0.45426119  0.95033082  0.22824199    -0.56300
C295        C  0.40577420  0.97311681  0.28218871     0.77500
O296        O  0.43202635  0.94337641  0.28027094    -0.58700
O297        O  0.46237241  0.01095969  0.26729726    -0.57100
O298        O  0.44288482  0.98468845  0.16845205    -0.57100
O299        O  0.40049648  0.95526326  0.26318654    -0.56300
O300        O  0.49429243  0.06239806  0.53095770    -0.57500
C301        C  0.48647122  0.06972945  0.66016779     0.75100
O302        O  0.46438282  0.00535586  0.59844928    -0.58600
C303        C  0.50106378  0.05320404  0.50688414     0.75100
C304        C  0.52746469  0.04201118  0.61646102     0.77500
Cd305      Cd  0.49395822  0.04601882  0.59281364     1.37500
O306        O  0.48060608  0.05009082  0.66164201    -0.57500
O307        O  0.53327810  0.06001697  0.60233824    -0.56300
C308        C  0.45125652  0.00527551  0.57716601     0.77500
O309        O  0.50672714  0.02663109  0.61915146    -0.58700
O310        O  0.49655958  0.07915258  0.62782381    -0.57100
O311        O  0.50762723  0.04348918  0.52283926    -0.57100
O312        O  0.45739071  0.02391961  0.56633515    -0.56300
O313        O  0.42241440  0.10451810  0.83884549    -0.57500
C314        C  0.39646940  0.09989675  0.98968205     0.75100
O315        O  0.38680211  0.12010795  0.87851761    -0.58600
C316        C  0.43472699  0.09995019  0.85091763     0.75100
C317        C  0.36222194  0.06006858  0.89426075     0.77500
Cd318      Cd  0.40302049  0.10363301  0.90386616     1.37500
O319        O  0.41584052  0.10765530  0.97371089    -0.57500
O320        O  0.37407377  0.06714699  0.92398448    -0.56300
C321        C  0.40079779  0.13993850  0.89124460     0.77500
O322        O  0.36964086  0.07304348  0.86587422    -0.58700
O323        O  0.38214227  0.09644463  0.96682935    -0.57100
O324        O  0.43377904  0.09846357  0.88827410    -0.57100
O325        O  0.41713035  0.14370099  0.90881483    -0.56300
O326        O  0.35024077  0.06610454  0.23218116    -0.57500
C327        C  0.29253799  0.01310820  0.34069943     0.75100
O328        O  0.30425795  0.06512574  0.29264411    -0.58600
C329        C  0.33675064  0.05569612  0.20441621     0.75100
C330        C  0.34962803  0.03357584  0.30233785     0.77500
Cd331      Cd  0.32312019  0.04728628  0.28749714     1.37500
O332        O  0.30802274  0.03277950  0.35219841    -0.57500
O333        O  0.35573634  0.05297648  0.31507255    -0.56300
C334        C  0.31895357  0.08219344  0.31294613     0.77500
O335        O  0.33272528  0.02223708  0.28118887    -0.58700
O336        O  0.28855239  0.00979170  0.30375957    -0.57100
O337        O  0.31634845  0.04110025  0.21495970    -0.57100
O338        O  0.33569193  0.08303228  0.32159442    -0.56300
O339        O  0.29706228  0.23942732  0.33759670    -0.57500
C340        C  0.32455694  0.23666165  0.23516845     0.75100
O341        O  0.36199725  0.24724455  0.31027212    -0.58600
C342        C  0.29201029  0.23211831  0.37228419     0.75100
C343        C  0.31005023  0.18278141  0.32268425     0.77500
Cd344      Cd  0.32114739  0.22672518  0.31767164     1.37500
O345        O  0.30607276  0.22088077  0.25066959    -0.57500
O346        O  0.29969106  0.18635508  0.30089833    -0.56300
C347        C  0.36609378  0.26288345  0.33516897     0.77500
O348        O  0.32538282  0.19949010  0.34243793    -0.58700
O349        O  0.34057855  0.24789902  0.25804340    -0.57100
O350        O  0.29981365  0.22193957  0.38072091    -0.57100
O351        O  0.34953776  0.26022831  0.35548180    -0.56300
O352        O  0.35038931  0.26463421  0.98792429    -0.57500
C353        C  0.38900535  0.30136786  0.87627501     0.75100
O354        O  0.33240858  0.22817536  0.94112753    -0.58600
C355        C  0.36578298  0.27080369  0.01063845     0.75100
C356        C  0.38774628  0.23867641  0.90809213     0.77500
Cd357      Cd  0.36881562  0.26292303  0.92536863     1.37500
O358        O  0.38031932  0.28188508  0.86111375    -0.57500
O359        O  0.36995423  0.23285836  0.89325368    -0.56300
C360        C  0.32125731  0.23284105  0.92449484     0.77500
O361        O  0.39779790  0.25675186  0.92905194    -0.58700
O362        O  0.38845410  0.30313742  0.91396076    -0.57100
O363        O  0.38422035  0.27615960  0.99386044    -0.57100
O364        O  0.33216090  0.24917383  0.90193608    -0.56300
O365        O  0.17899046  0.40897492  0.94116677    -0.57500
C366        C  0.16842543  0.42741706  0.07223501     0.75100
O367        O  0.13419948  0.36803864  0.04737436    -0.58600
C368        C  0.15897664  0.39912849  0.93162234     0.75100
C369        C  0.20575662  0.39426256  0.01813356     0.77500
Cd370      Cd  0.16851990  0.39640123  0.01186467     1.37500
O371        O  0.16857482  0.41144068  0.08085507    -0.57500
O372        O  0.20789654  0.40900782  0.99816468    -0.56300
C373        C  0.12919377  0.35193674  0.02297444     0.77500
O374        O  0.18691583  0.38129176  0.03559562    -0.58700
O375        O  0.16982692  0.43023520  0.03535752    -0.57100
O376        O  0.14419236  0.38985482  0.95951245    -0.57100
O377        O  0.14303017  0.35613711  0.99399112    -0.56300
O378        O  0.06630421  0.33679345  0.62092523    -0.57500
C379        C  0.09880373  0.34984326  0.72754312     0.75100
O380        O  0.04685783  0.30186713  0.70316104    -0.58600
C381        C  0.06640846  0.32740901  0.58758849     0.75100
C382        C  0.11173371  0.30884788  0.64485584     0.77500
Cd383      Cd  0.07999106  0.31941487  0.65816306     1.37500
O384        O  0.10658526  0.35735705  0.69303373    -0.57500
O385        O  0.11560139  0.32669901  0.63440637    -0.56300
C386        C  0.03360589  0.28754660  0.67755445     0.77500
O387        O  0.09242213  0.29492383  0.66045913    -0.58700
O388        O  0.08253627  0.32948685  0.72880237    -0.57100
O389        O  0.07594335  0.31790094  0.58632385    -0.57100
O390        O  0.04241568  0.28452475  0.64612209    -0.56300
O391        O  0.23518914  0.24749412  0.60363788    -0.57500
C392        C  0.24979586  0.27471887  0.71477547     0.75100
O393        O  0.25558660  0.31672933  0.67224962    -0.58600
C394        C  0.24111037  0.25590745  0.56977947     0.75100
C395        C  0.19721840  0.27715960  0.63962661     0.77500
Cd396      Cd  0.23722907  0.27946321  0.64014201     1.37500
O397        O  0.22937011  0.26405376  0.70710883    -0.57500
O398        O  0.19659670  0.26209016  0.65554675    -0.56300
C399        C  0.27219389  0.32600305  0.64762468     0.77500
O400        O  0.21562606  0.29190948  0.62277588    -0.58700
O401        O  0.26382301  0.28455871  0.68612037    -0.57100
O402        O  0.24424889  0.27441597  0.56848760    -0.57100
O403        O  0.27160238  0.31413439  0.61758108    -0.56300
O404        O  0.28520199  0.31153491  0.95595544    -0.57500
C405        C  0.34806531  0.36247017  0.05316730     0.75100
O406        O  0.27462954  0.29488615  0.02450956    -0.58600
C407        C  0.30010718  0.32229142  0.92910465     0.75100
C408        C  0.28183516  0.35348429  0.03440652     0.77500
Cd409      Cd  0.30554699  0.33411435  0.01440468     1.37500
O410        O  0.32992536  0.35793106  0.06982821    -0.57500
O411        O  0.27869878  0.33836345  0.05472975    -0.56300
C412        C  0.28680576  0.28948249  0.03361123     0.77500
O413        O  0.29673641  0.36034635  0.00641133    -0.58700
O414        O  0.34691812  0.35470347  0.01758966    -0.57100
O415        O  0.31857924  0.33954856  0.94107681    -0.57100
O416        O  0.30686998  0.30522230  0.04065500    -0.56300
O417        O  0.02246279  0.37210947  0.70924149    -0.57500
C418        C  0.03893142  0.40357398  0.60028049     0.75100
O419        O  0.97176408  0.34129415  0.67710457    -0.58600
C420        C  0.01332968  0.37460850  0.74081609     0.75100
C421        C  0.98125264  0.40073342  0.66362771     0.77500
Cd422      Cd  0.00401961  0.38030448  0.66317042     1.37500
O423        O  0.02220516  0.38344824  0.59750687    -0.57500
O424        O  0.99674975  0.40722688  0.68644696    -0.56300
C425        C  0.97737759  0.33292303  0.64875224     0.77500
O426        O  0.97555120  0.38402701  0.64026012    -0.58700
O427        O  0.04094021  0.41357413  0.63398646    -0.57100
O428        O  0.00340513  0.38332758  0.73688428    -0.57100
O429        O  0.99234400  0.34628418  0.62402345    -0.56300
O430        O  0.10558065  0.48686063  0.39103957    -0.57500
C431        C  0.12930449  0.47078806  0.26149841     0.75100
O432        O  0.06820794  0.44283644  0.28495914    -0.58600
C433        C  0.09887049  0.46773584  0.40085550     0.75100
C434        C  0.10683540  0.51753324  0.30124249     0.77500
Cd435      Cd  0.10027005  0.47658352  0.31786544     1.37500
O436        O  0.13066092  0.47148225  0.29881749    -0.57500
O437        O  0.09157253  0.49838539  0.28756943    -0.56300
C438        C  0.05328866  0.44160125  0.30855564     0.77500
O439        O  0.12020417  0.51844045  0.32344604    -0.58700
O440        O  0.11574137  0.47401425  0.25058582    -0.57100
O441        O  0.09533483  0.45388295  0.37230557    -0.57100
O442        O  0.06000520  0.45695448  0.33539196    -0.56300
O443        O  0.04626250  0.61684152  0.33459200    -0.57500
C444        C  0.06669660  0.64673998  0.23027774     0.75100
O445        O  0.10011490  0.68352770  0.33174544    -0.58600
C446        C  0.05169697  0.62523269  0.36969116     0.75100
C447        C  0.10349968  0.62162553  0.29895691     0.77500
Cd448      Cd  0.08388223  0.64565707  0.30252273     1.37500
O449        O  0.05948445  0.64970542  0.26396538    -0.57500
O450        O  0.08778651  0.61632782  0.27769539    -0.56300
C451        C  0.11319960  0.69336973  0.30198469     0.77500
O452        O  0.11132314  0.63910413  0.32133318    -0.58700
O453        O  0.07897954  0.64026941  0.23072595    -0.57100
O454        O  0.07119334  0.64310493  0.37284806    -0.57100
O455        O  0.11591094  0.68151582  0.27650762    -0.56300
O456        O  0.92984609  0.52637563  0.63630849    -0.57500
C457        C  0.97025335  0.54734652  0.54492730     0.75100
O458        O  0.99699841  0.53253019  0.59085236    -0.58600
C459        C  0.93494483  0.53186021  0.67243085     0.75100
C460        C  0.94887867  0.47995393  0.62283780     0.77500
Cd461      Cd  0.96131132  0.52394952  0.61552766     1.37500
O462        O  0.95595102  0.52624844  0.54434970    -0.57500
O463        O  0.94386115  0.48423933  0.59191114    -0.56300
C464        C  0.00851427  0.54834474  0.61597142     0.77500
O465        O  0.95716314  0.49505862  0.65027721    -0.58700
O466        O  0.97761204  0.55696962  0.57854607    -0.57100
O467        O  0.95152868  0.53289258  0.68212563    -0.57100
O468        O  0.99794636  0.55108031  0.64473616    -0.56300
C469        C  0.03672479  0.61465647  0.40561028    -0.04900
C470        C  0.04463265  0.62463741  0.44348129    -0.04800
C471        C  0.03205952  0.61419742  0.47803276    -0.23000
C472        C  0.01135657  0.59332513  0.47563074     0.19200
C473        C  0.00274830  0.58322078  0.43796106     0.16400
C474        C  0.01541290  0.59406661  0.40304803    -0.18000
C475        C  0.98210482  0.56205577  0.43605863    -0.19900
C476        C  0.97078967  0.55059519  0.47093039    -0.12400
C477        C  0.97967325  0.56029618  0.50835295     0.04200
C478        C  0.99968154  0.58200210  0.51036486    -0.24600
H479        H  0.06095882  0.64034363  0.44654924     0.09300
H480        H  0.03890115  0.62214874  0.50669833     0.12900
H481        H  0.00910398  0.58611858  0.37410070     0.12900
H482        H  0.97513008  0.55401463  0.40752619     0.12600
H483        H  0.95546031  0.53390124  0.46853292     0.13200
H484        H  0.00693463  0.58966938  0.53891650     0.15100
C485        C  0.10801531  0.53721359  0.29174918    -0.04900
C486        C  0.09423720  0.53447757  0.26249760    -0.04800
C487        C  0.09254455  0.55147614  0.25565260    -0.23000
C488        C  0.10442911  0.57160464  0.27818434     0.19200
C489        C  0.11917790  0.57518039  0.30653289     0.16400
C490        C  0.12109870  0.55796603  0.31291713    -0.18000
C491        C  0.13080261  0.59548506  0.32914676    -0.19900
C492        C  0.12668837  0.61132251  0.32546320    -0.12400
C493        C  0.11111181  0.60721515  0.29874337     0.04200
C494        C  0.10078961  0.58767743  0.27410413    -0.24600
H495        H  0.08417727  0.51883534  0.24541771     0.09300
H496        H  0.08127643  0.54854959  0.23365972     0.12900
H497        H  0.13180662  0.56031180  0.33550950     0.12900
H498        H  0.14234582  0.59871702  0.35081431     0.12600
H499        H  0.13500109  0.62633876  0.34461256     0.13200
H500        H  0.08887469  0.58433196  0.25312100     0.15100
C501        C  0.94725459  0.45944764  0.62638031    -0.04900
C502        C  0.94364892  0.44503928  0.59312392    -0.04800
C503        C  0.94737035  0.42879826  0.59479469    -0.23000
C504        C  0.95509580  0.42701636  0.62952519     0.19200
C505        C  0.95762824  0.44074418  0.66360984     0.16400
C506        C  0.95322858  0.45642649  0.66204762    -0.18000
C507        C  0.96590514  0.43963684  0.69806937    -0.19900
C508        C  0.97277962  0.42592150  0.69820082    -0.12400
C509        C  0.97105588  0.41268679  0.66421177     0.04200
C510        C  0.96149679  0.41271294  0.63025359    -0.24600
H511        H  0.93913870  0.44710591  0.56525754     0.09300
H512        H  0.94526934  0.41840195  0.56836313     0.12900
H513        H  0.95604152  0.46739927  0.68797969     0.12900
H514        H  0.96792555  0.45006370  0.72441983     0.12600
H515        H  0.97995920  0.42604628  0.72473458     0.13200
H516        H  0.96029516  0.40267692  0.60380270     0.15100
C517        C  0.09372346  0.46116533  0.44308907    -0.04900
C518        C  0.09438018  0.47548622  0.47418474    -0.04800
C519        C  0.08579262  0.46785701  0.51270545    -0.23000
C520        C  0.07617035  0.44566269  0.52087842     0.19200
C521        C  0.07632246  0.43145121  0.49020901     0.16400
C522        C  0.08526897  0.43932207  0.45185849    -0.18000
C523        C  0.06645528  0.40919523  0.49772809    -0.19900
C524        C  0.05544051  0.40070949  0.53443928    -0.12400
C525        C  0.05431969  0.41430306  0.56486283     0.04200
C526        C  0.06540631  0.43707315  0.55835090    -0.24600
H527        H  0.10070081  0.49235027  0.46836048     0.09300
H528        H  0.08592045  0.47908574  0.53569980     0.12900
H529        H  0.08454324  0.42801143  0.42829026     0.12900
H530        H  0.06646494  0.39807334  0.47464415     0.12600
H531        H  0.04711201  0.38317267  0.53863208     0.13200
H532        H  0.06443962  0.44767603  0.58134666     0.15100
C533        C  0.25708959  0.27749472  0.75575630    -0.04900
C534        C  0.24144766  0.26489414  0.78647552    -0.04800
C535        C  0.24733606  0.27033382  0.82626943    -0.23000
C536        C  0.26887236  0.28876608  0.83619677     0.19200
C537        C  0.28501044  0.30112978  0.80559221     0.16400
C538        C  0.27912334  0.29520186  0.76554765    -0.18000
C539        C  0.30643391  0.31980484  0.81570684    -0.19900
C540        C  0.31158673  0.32659110  0.85575984    -0.12400
C541        C  0.29547939  0.31473436  0.88645021     0.04200
C542        C  0.27425648  0.29550881  0.87624613    -0.24600
H543        H  0.22440325  0.25130381  0.77983790     0.09300
H544        H  0.23477144  0.26063038  0.84940343     0.12900
H545        H  0.29131453  0.30527798  0.74223727     0.12900
H546        H  0.31904813  0.32948728  0.79262235     0.12600
H547        H  0.32805535  0.34130860  0.86270621     0.13200
H548        H  0.26163808  0.28606079  0.89950774     0.15100
C549        C  0.00981146  0.27881006  0.68092186    -0.04900
C550        C  0.00098684  0.28156368  0.71773430    -0.04800
C551        C  0.98575575  0.28678775  0.71912189    -0.23000
C552        C  0.97962239  0.28970015  0.68363255     0.19200
C553        C  0.98545290  0.28321336  0.64679401     0.16400
C554        C  0.99979914  0.27679020  0.64587554    -0.18000
C555        C  0.97990725  0.28674594  0.61123331    -0.19900
C556        C  0.97251696  0.30014463  0.61196196    -0.12400
C557        C  0.97044422  0.30986379  0.64812869     0.04200
C558        C  0.97117594  0.30225816  0.68402852    -0.24600
H559        H  0.00804986  0.28258145  0.74515574     0.09300
H560        H  0.98097402  0.29114913  0.74765986     0.12900
H561        H  0.00634960  0.27449461  0.61729079     0.12900
H562        H  0.98381199  0.28150560  0.58271412     0.12600
H563        H  0.97119282  0.30521374  0.58407848     0.13200
H564        H  0.96946331  0.30959342  0.71213063     0.15100
C565        C  0.12922315  0.30502362  0.63951347    -0.04900
C566        C  0.15011422  0.32122604  0.62152707    -0.04800
C567        C  0.16716812  0.31851083  0.61718428    -0.23000
C568        C  0.16374591  0.29955211  0.63085786     0.19200
C569        C  0.14290227  0.28307973  0.64910083     0.16400
C570        C  0.12569636  0.28588555  0.65325104    -0.18000
C571        C  0.13980423  0.26426563  0.66314925    -0.19900
C572        C  0.15726257  0.26196394  0.65949911    -0.12400
C573        C  0.17802859  0.27836424  0.64149699     0.04200
C574        C  0.18101018  0.29702002  0.62696716    -0.24600
H575        H  0.15336688  0.33616951  0.61089014     0.09300
H576        H  0.18310092  0.33133245  0.60330474     0.12900
H577        H  0.10973518  0.27335756  0.66745929     0.12900
H578        H  0.12397538  0.25146111  0.67730982     0.12600
H579        H  0.15460206  0.24750035  0.67111386     0.13200
H580        H  0.19698719  0.30990158  0.61326588     0.15100
C581        C  0.26809558  0.36191102  0.04148783    -0.04900
C582        C  0.25071595  0.35309114  0.07112402    -0.04800
C583        C  0.23580658  0.35878921  0.07413627    -0.23000
C584        C  0.23796679  0.37331378  0.04742190     0.19200
C585        C  0.25597274  0.38302969  0.01869546     0.16400
C586        C  0.27098138  0.37739347  0.01610845    -0.18000
C587        C  0.25819283  0.39758629  0.99201746    -0.19900
C588        C  0.24228096  0.40188580  0.99280760    -0.12400
C589        C  0.22384727  0.39166317  0.02020333     0.04200
C590        C  0.22203214  0.37769665  0.04800404    -0.24600
H591        H  0.24818910  0.34120611  0.09114170     0.09300
H592        H  0.22219899  0.35131374  0.09656060     0.12900
H593        H  0.28435457  0.38436964  0.99319853     0.12900
H594        H  0.27194303  0.40522584  0.96988192     0.12600
H595        H  0.24401935  0.41266096  0.97110923     0.13200
H596        H  0.20792530  0.36979103  0.06943087     0.15100
C597        C  0.15266213  0.39709167  0.88997881    -0.04900
C598        C  0.16831340  0.40338645  0.85756990    -0.04800
C599        C  0.16134674  0.39769909  0.81821646    -0.23000
C600        C  0.13856229  0.38543098  0.81054505     0.19200
C601        C  0.12292654  0.38009875  0.84294678     0.16400
C602        C  0.13008010  0.38618446  0.88214153    -0.18000
C603        C  0.10013636  0.36753436  0.83595083    -0.19900
C604        C  0.09267973  0.35900727  0.79766705    -0.12400
C605        C  0.10781388  0.36326996  0.76528654     0.04200
C606        C  0.13091809  0.37724504  0.77158213    -0.24600
H607        H  0.18580981  0.41181858  0.86267100     0.09300
H608        H  0.17366704  0.40207036  0.79390786     0.12900
H609        H  0.11778489  0.38125673  0.90672138     0.12900
H610        H  0.08793866  0.36335962  0.86042028     0.12600
H611        H  0.07485830  0.34827438  0.79353670     0.13200
H612        H  0.14270656  0.38032149  0.74690899     0.15100
C613        C  0.14170178  0.46519563  0.23206158    -0.04900
C614        C  0.14836603  0.45235203  0.24305244    -0.04800
C615        C  0.15649294  0.44367968  0.21425036    -0.23000
C616        C  0.15837417  0.44789623  0.17386001     0.19200
C617        C  0.15311390  0.46198061  0.16271752     0.16400
C618        C  0.14472159  0.47045661  0.19182239    -0.18000
C619        C  0.15541023  0.46652393  0.12239928    -0.19900
C620        C  0.16156232  0.45619646  0.09318135    -0.12400
C621        C  0.16551435  0.44108174  0.10360848     0.04200
C622        C  0.16451580  0.43754379  0.14430772    -0.24600
H623        H  0.14619825  0.44802948  0.27372005     0.09300
H624        H  0.16063038  0.43307918  0.22343577     0.12900
H625        H  0.13979830  0.48047859  0.18295736     0.12900
H626        H  0.15171906  0.47749162  0.11329365     0.12600
H627        H  0.16231501  0.45934298  0.06220745     0.13200
H628        H  0.16766369  0.42606502  0.15292343     0.15100
C629        C  0.27947154  0.26634509  0.02850634    -0.04900
C630        C  0.28721053  0.25836547  0.05296048    -0.04800
C631        C  0.28870901  0.24106595  0.03879765    -0.23000
C632        C  0.28470290  0.23334755  0.99875758     0.19200
C633        C  0.27499010  0.23991200  0.97530900     0.16400
C634        C  0.27102686  0.25531197  0.99147675    -0.18000
C635        C  0.27326695  0.23427152  0.93427592    -0.19900
C636        C  0.28544708  0.22681173  0.91562767    -0.12400
C637        C  0.29811564  0.22373301  0.93841866     0.04200
C638        C  0.29417207  0.22299470  0.98003158    -0.24600
H639        H  0.29375414  0.26668029  0.08158501     0.09300
H640        H  0.29572830  0.23591359  0.05743015     0.12900
H641        H  0.26539738  0.26174223  0.97229192     0.12900
H642        H  0.26558469  0.23889463  0.91593600     0.12600
H643        H  0.28770991  0.22680687  0.88345871     0.13200
H644        H  0.30332033  0.21982874  0.99770143     0.15100
C645        C  0.36131189  0.26963481  0.05421557    -0.04900
C646        C  0.37726496  0.28554865  0.08099986    -0.04800
C647        C  0.37267045  0.28301646  0.12219658    -0.23000
C648        C  0.35225630  0.26428091  0.13701208     0.19200
C649        C  0.33613156  0.24831025  0.11009762     0.16400
C650        C  0.34078019  0.25116748  0.06906467    -0.18000
C651        C  0.31587627  0.22939443  0.12455679    -0.19900
C652        C  0.31175430  0.22603121  0.16539297    -0.12400
C653        C  0.32784213  0.24146278  0.19247468     0.04200
C654        C  0.34796970  0.26079211  0.17806804    -0.24600
H655        H  0.39322568  0.29983152  0.07006905     0.09300
H656        H  0.38524580  0.29544075  0.14241997     0.12900
H657        H  0.32879921  0.23844389  0.04844604     0.12900
H658        H  0.30339743  0.21694774  0.10421475     0.12600
H659        H  0.29624609  0.21100118  0.17568121     0.13200
H660        H  0.36055407  0.27282158  0.19867720     0.15100
C661        C  0.27851766  0.23588133  0.40218362    -0.04900
C662        C  0.27464535  0.25170035  0.39657167    -0.04800
C663        C  0.26462723  0.25743780  0.42727107    -0.23000
C664        C  0.25831452  0.24743635  0.46407990     0.19200
C665        C  0.26094766  0.23057761  0.46913400     0.16400
C666        C  0.27096915  0.22489205  0.43819038    -0.18000
C667        C  0.25445468  0.22039208  0.50571799    -0.19900
C668        C  0.24673776  0.22778452  0.53785394    -0.12400
C669        C  0.24539426  0.24550751  0.53402165     0.04200
C670        C  0.25045692  0.25472716  0.49650208    -0.24600
H671        H  0.28019617  0.26030729  0.36905401     0.09300
H672        H  0.26254133  0.27025140  0.42270357     0.12900
H673        H  0.27365215  0.21248870  0.44274069     0.12900
H674        H  0.25614341  0.20726999  0.50995009     0.12600
H675        H  0.24282127  0.22031359  0.56626558     0.13200
H676        H  0.24928633  0.26827139  0.49300366     0.15100
C677        C  0.31689664  0.10045583  0.32506448    -0.04900
C678        C  0.33099686  0.11719124  0.35319622    -0.04800
C679        C  0.33059737  0.13561937  0.36183015    -0.23000
C680        C  0.31642250  0.13782769  0.34180906     0.19200
C681        C  0.30145243  0.12059613  0.31477954     0.16400
C682        C  0.30156297  0.10187179  0.30701329    -0.18000
C683        C  0.28747975  0.12294039  0.29439288    -0.19900
C684        C  0.28945572  0.14282521  0.29858636    -0.12400
C685        C  0.30525544  0.16056838  0.32354741     0.04200
C686        C  0.31795320  0.15754658  0.34651584    -0.24600
H687        H  0.34270203  0.11627160  0.36790309     0.09300
H688        H  0.34203620  0.14857844  0.38290539     0.12900
H689        H  0.29053608  0.08899612  0.28537957     0.12900
H690        H  0.27575532  0.10981425  0.27384667     0.12600
H691        H  0.27927940  0.14465433  0.28096820     0.13200
H692        H  0.33001868  0.17103285  0.36620218     0.15100
C693        C  0.39739186  0.15724114  0.88669046    -0.04900
C694        C  0.37830475  0.15131411  0.86815744    -0.04800
C695        C  0.37348425  0.16661302  0.86653615    -0.23000
C696        C  0.38761724  0.18817748  0.88353182     0.19200
C697        C  0.40717664  0.19462169  0.90141440     0.16400
C698        C  0.41201802  0.17912058  0.90274167    -0.18000
C699        C  0.42113382  0.21623507  0.91869389    -0.19900
C700        C  0.41530834  0.23097379  0.91956555    -0.12400
C701        C  0.39555052  0.22441350  0.90284147     0.04200
C702        C  0.38206190  0.20312470  0.88404611    -0.24600
H703        H  0.36673693  0.13459888  0.85556329     0.09300
H704        H  0.35843248  0.16141301  0.85271284     0.12900
H705        H  0.42673870  0.18387227  0.91721107     0.12900
H706        H  0.43623276  0.22153763  0.93244822     0.12600
H707        H  0.42596713  0.24729995  0.93424040     0.13200
H708        H  0.36672971  0.19781843  0.87116015     0.15100
C709        C  0.38972044  0.09370096  0.03191725    -0.04900
C710        C  0.40533903  0.10203924  0.06133031    -0.04800
C711        C  0.39814166  0.09595582  0.10098230    -0.23000
C712        C  0.37522792  0.08118138  0.11172328     0.19200
C713        C  0.35949309  0.07213997  0.08204898     0.16400
C714        C  0.36680744  0.07851579  0.04262279    -0.18000
C715        C  0.33664022  0.05701908  0.09230427    -0.19900
C716        C  0.32931175  0.05134146  0.13187900    -0.12400
C717        C  0.34466417  0.06072817  0.16204317     0.04200
C718        C  0.36771397  0.07546086  0.15156134    -0.24600
H719        H  0.42303568  0.11350412  0.05379989     0.09300
H720        H  0.41048530  0.10291355  0.12329371     0.12900
H721        H  0.35454401  0.07152098  0.02010881     0.12900
H722        H  0.32438417  0.04977795  0.06974813     0.12600
H723        H  0.31156027  0.03990040  0.13898725     0.13200
H724        H  0.37980086  0.08266924  0.17442394     0.15100
C725        C  0.48087545  0.08046122  0.69385060    -0.04900
C726        C  0.47921031  0.09763627  0.68668760    -0.04800
C727        C  0.47109481  0.10582011  0.71668235    -0.23000
C728        C  0.46478992  0.09729015  0.75484291     0.19200
C729        C  0.46768959  0.08102853  0.76335176     0.16400
C730        C  0.47546921  0.07253353  0.73273481    -0.18000
C731        C  0.46207797  0.07309742  0.80200758    -0.19900
C732        C  0.45269088  0.08036908  0.83124824    -0.12400
C733        C  0.44834167  0.09542663  0.82233035     0.04200
C734        C  0.45494189  0.10418926  0.78415250    -0.24600
H735        H  0.48327243  0.10409967  0.65726410     0.09300
H736        H  0.46925351  0.11849240  0.70971030     0.12900
H737        H  0.47687730  0.05945546  0.73894184     0.12900
H738        H  0.46440146  0.06081704  0.80935160     0.12600
H739        H  0.44776135  0.07331935  0.86027293     0.13200
H740        H  0.45186099  0.11594327  0.77690767     0.15100
C741        C  0.36114793  0.02400215  0.31129286    -0.04900
C742        C  0.38200126  0.03708772  0.32845150    -0.04800
C743        C  0.39353264  0.02804038  0.33290756    -0.23000
C744        C  0.38439777  0.00592188  0.31977517     0.19200
C745        C  0.36280697  0.99228753  0.30481793     0.16400
C746        C  0.35121655  0.00133652  0.30125511    -0.18000
C747        C  0.35384515  0.97032726  0.29089310    -0.19900
C748        C  0.36717425  0.96278413  0.28752070    -0.12400
C749        C  0.38936404  0.97701256  0.29885775     0.04200
C750        C  0.39725527  0.99787103  0.31793601    -0.24600
H751        H  0.38971498  0.05446249  0.33703702     0.09300
H752        H  0.41003802  0.03863827  0.34469253     0.12900
H753        H  0.33487392  0.99094654  0.28876514     0.12900
H754        H  0.33718054  0.95961421  0.27977771     0.12600
H755        H  0.36076594  0.94662791  0.27296138     0.13200
H756        H  0.41431916  0.00886722  0.32725600     0.15100
C757        C  0.48956211  0.02395187  0.31663881    -0.04900
C758        C  0.50649855  0.02336572  0.33006577    -0.04800
C759        C  0.51409487  0.03131295  0.36877154    -0.23000
C760        C  0.50461060  0.03963090  0.39523775     0.19200
C761        C  0.48857084  0.04155956  0.38129721     0.16400
C762        C  0.48142558  0.03405728  0.34204328    -0.18000
C763        C  0.47889457  0.04966694  0.40762678    -0.19900
C764        C  0.48423903  0.05485569  0.44774654    -0.12400
C765        C  0.49930209  0.05197409  0.46274986     0.04200
C766        C  0.50987785  0.04482682  0.43586676    -0.24600
H767        H  0.51299009  0.01559352  0.31141034     0.09300
H768        H  0.52655650  0.02984603  0.37867951     0.12900
H769        H  0.46813442  0.03438082  0.33252352     0.12900
H770        H  0.46652358  0.05122308  0.39754118     0.12600
H771        H  0.47562128  0.06003426  0.46756869     0.13200
H772        H  0.52140987  0.04235038  0.44688923     0.15100
C773        C  0.45183386  0.92720661  0.27507069    -0.04900
C774        C  0.45848653  0.93172792  0.31439817    -0.04800
C775        C  0.47176577  0.92590465  0.32600862    -0.23000
C776        C  0.47823317  0.91522810  0.29848609     0.19200
C777        C  0.46948722  0.90838503  0.26014780     0.16400
C778        C  0.45637766  0.91456585  0.24854862    -0.18000
C779        C  0.47567482  0.89727729  0.23301779    -0.19900
C780        C  0.49214602  0.89508629  0.24231545    -0.12400
C781        C  0.50263618  0.90415732  0.27862181     0.04200
C782        C  0.49477922  0.91307627  0.30743071    -0.24600
H783        H  0.45521775  0.94162422  0.33504003     0.09300
H784        H  0.47813705  0.93102027  0.35563156     0.12900
H785        H  0.45120143  0.91109297  0.21814608     0.12900
H786        H  0.46885748  0.89158939  0.20376072     0.12600
H787        H  0.49800135  0.88805651  0.21986011     0.13200
H788        H  0.50272355  0.91984266  0.33568744     0.15100
C789        C  0.60909851  0.03524516  0.63961798    -0.04900
C790        C  0.61741204  0.05443428  0.61902493    -0.04800
C791        C  0.60350663  0.06055321  0.61238152    -0.23000
C792        C  0.58101060  0.04750084  0.62603240     0.19200
C793        C  0.57277708  0.02864020  0.64805626     0.16400
C794        C  0.58688169  0.02277535  0.65500129    -0.18000
C795        C  0.55031962  0.01540915  0.66149715    -0.19900
C796        C  0.53588852  0.02023161  0.65182670    -0.12400
C797        C  0.54364378  0.03854080  0.62898089     0.04200
C798        C  0.56641667  0.05248547  0.61693421    -0.24600
H799        H  0.63449985  0.06435538  0.60699159     0.09300
H800        H  0.61017915  0.07511908  0.59560127     0.12900
H801        H  0.58028321  0.00798682  0.67108275     0.12900
H802        H  0.54376297  0.00096861  0.67858234     0.12600
H803        H  0.51847576  0.00936126  0.66181508     0.13200
H804        H  0.57256511  0.06663114  0.59928775     0.15100
C805        C  0.58315484  0.92292651  0.41101528    -0.04900
C806        C  0.56695985  0.91928687  0.44095801    -0.04800
C807        C  0.57291341  0.92730829  0.48026304    -0.23000
C808        C  0.59522393  0.93920731  0.49050750     0.19200
C809        C  0.61148377  0.94210502  0.46108400     0.16400
C810        C  0.60534079  0.93384168  0.42167079    -0.18000
C811        C  0.63383044  0.95418663  0.47112922    -0.19900
C812        C  0.64020447  0.96423602  0.50928319    -0.12400
C813        C  0.62436923  0.96226726  0.53844157     0.04200
C814        C  0.60172217  0.94912719  0.52909635    -0.24600
H815        H  0.54980141  0.91112922  0.43364604     0.09300
H816        H  0.56018391  0.92488414  0.50233774     0.12900
H817        H  0.61805678  0.93693501  0.39892481     0.12900
H818        H  0.64653761  0.95654047  0.44906385     0.12600
H819        H  0.65773760  0.97421098  0.51557342     0.13200
H820        H  0.58935203  0.94760938  0.55110151     0.15100
C821        C  0.35396768  0.93332727  0.50828223    -0.04900
C822        C  0.36643085  0.95134956  0.48330682    -0.04800
C823        C  0.38895939  0.96786197  0.48919364    -0.23000
C824        C  0.39915194  0.96671362  0.52060095     0.19200
C825        C  0.38733974  0.94762643  0.54353850     0.16400
C826        C  0.36483585  0.93068663  0.53651259    -0.18000
C827        C  0.39768653  0.94675845  0.57521246    -0.19900
C828        C  0.41896210  0.96527040  0.58567916    -0.12400
C829        C  0.43001344  0.98476264  0.56456076     0.04200
C830        C  0.42039489  0.98502675  0.53111711    -0.24600
H831        H  0.35833084  0.95357707  0.46129150     0.09300
H832        H  0.39794134  0.98228564  0.47106841     0.12900
H833        H  0.35524598  0.91686901  0.55606589     0.12900
H834        H  0.38895521  0.93219477  0.59292626     0.12600
H835        H  0.42635247  0.96468549  0.61116856     0.13200
H836        H  0.42910552  0.99987652  0.51410981     0.15100
C837        C  0.28189995  0.99487408  0.36877740    -0.04900
C838        C  0.26883096  0.97244463  0.35489034    -0.04800
C839        C  0.26396363  0.95566164  0.37904137    -0.23000
C840        C  0.27231852  0.96108380  0.41730492     0.19200
C841        C  0.28427522  0.98341922  0.43237241     0.16400
C842        C  0.28865582  0.00004028  0.40833348    -0.18000
C843        C  0.29283111  0.98902507  0.47038213    -0.19900
C844        C  0.29045072  0.97284957  0.49262945    -0.12400
C845        C  0.27947521  0.95075289  0.47736708     0.04200
C846        C  0.26992290  0.94484174  0.43996655    -0.24600
H847        H  0.26353364  0.96801220  0.32454892     0.09300
H848        H  0.25461950  0.93860253  0.36705457     0.12900
H849        H  0.29877698  0.01725737  0.41955163     0.12900
H850        H  0.30203281  0.00608378  0.48236944     0.12600
H851        H  0.29797753  0.97785404  0.52123374     0.13200
H852        H  0.26138989  0.92784369  0.42786594     0.15100
C853        C  0.34162572  0.03733317  0.89351197    -0.04900
C854        C  0.33520603  0.02409226  0.85807781    -0.04800
C855        C  0.32162551  0.00091515  0.85967957    -0.23000
C856        C  0.31500907  0.99111890  0.89672507     0.19200
C857        C  0.31900923  0.00437016  0.93220546     0.16400
C858        C  0.33166177  0.02743733  0.93014588    -0.18000
C859        C  0.31301728  0.99473165  0.96930250    -0.19900
C860        C  0.30605813  0.97287661  0.97131900    -0.12400
C861        C  0.30467455  0.96057097  0.93621993     0.04200
C862        C  0.30725318  0.96903398  0.89906825    -0.24600
H863        H  0.34252959  0.03154862  0.82961009     0.09300
H864        H  0.31832137  0.99086145  0.83223413     0.12900
H865        H  0.33627267  0.03777341  0.95752331     0.12900
H866        H  0.31575402  0.00467803  0.99671216     0.12600
H867        H  0.30377562  0.96638814  0.00015980     0.13200
H868        H  0.30568791  0.95927238  0.87191831     0.15100
C869        C  0.30526594  0.90071784  0.80476570    -0.04900
C870        C  0.32038225  0.89979865  0.77813194    -0.04800
C871        C  0.32036935  0.90162923  0.73725612    -0.23000
C872        C  0.30549160  0.90479485  0.72247724     0.19200
C873        C  0.29052178  0.90619140  0.74914006     0.16400
C874        C  0.29037254  0.90394530  0.78997902    -0.18000
C875        C  0.27594034  0.90978301  0.73449324    -0.19900
C876        C  0.27579018  0.91141927  0.69360941    -0.12400
C877        C  0.29016368  0.90942822  0.66668050     0.04200
C878        C  0.30519808  0.90639804  0.68148413    -0.24600
H879        H  0.33211772  0.89754824  0.78890893     0.09300
H880        H  0.33203755  0.90063096  0.71720864     0.12900
H881        H  0.27890698  0.90511624  0.81037083     0.12900
H882        H  0.26447068  0.91106602  0.75460779     0.12600
H883        H  0.26408595  0.91375710  0.68298387     0.13200
H884        H  0.31646953  0.90494730  0.66105829     0.15100
C885        C  0.36129243  0.92231784  0.00692504    -0.04900
C886        C  0.36016414  0.90542693  0.02477310    -0.04800
C887        C  0.37422416  0.91066623  0.05536158    -0.23000
C888        C  0.38988650  0.93293097  0.06833229     0.19200
C889        C  0.39223995  0.95014836  0.04878550     0.16400
C890        C  0.37784027  0.94473281  0.01834867    -0.18000
C891        C  0.40825447  0.97242604  0.06134125    -0.19900
C892        C  0.42077577  0.97755316  0.09456964    -0.12400
C893        C  0.41745254  0.96049612  0.11594776     0.04200
C894        C  0.40246468  0.93820301  0.10168478    -0.24600
H895        H  0.34758558  0.88807601  0.01655334     0.09300
H896        H  0.37232639  0.89724810  0.06978349     0.12900
H897        H  0.37897941  0.95791112  0.00453712     0.12900
H898        H  0.41049722  0.98587605  0.04639789     0.12600
H899        H  0.43218921  0.99480883  0.10477975     0.13200
H900        H  0.39984111  0.92483916  0.11761584     0.15100
C901        C  0.09075488  0.63564489  0.54478735    -0.04900
C902        C  0.08002046  0.62007800  0.51303526    -0.04800
C903        C  0.06503470  0.59743183  0.52017171    -0.23000
C904        C  0.06005614  0.59049839  0.55941110     0.19200
C905        C  0.07273501  0.60589718  0.59068809     0.16400
C906        C  0.08897214  0.62827767  0.58256128    -0.18000
C907        C  0.06657830  0.59952220  0.63027595    -0.19900
C908        C  0.04625110  0.57926957  0.63914821    -0.12400
C909        C  0.03265386  0.56474703  0.60835849     0.04200
C910        C  0.04063115  0.56954722  0.56851949    -0.24600
H911        H  0.08104282  0.62561854  0.48386689     0.09300
H912        H  0.05540908  0.58584924  0.49589440     0.12900
H913        H  0.09698580  0.64046707  0.60712828     0.12900
H914        H  0.07616225  0.61114533  0.65453782     0.12600
H915        H  0.04036346  0.57575032  0.66997737     0.13200
H916        H  0.03004324  0.55849121  0.54460488     0.15100
C917        C  0.15210935  0.76385630  0.53610534    -0.04900
C918        C  0.15135906  0.78041644  0.55784832    -0.04800
C919        C  0.16971870  0.80259773  0.55738162    -0.23000
C920        C  0.18917685  0.80866469  0.53506247     0.19200
C921        C  0.19008770  0.79237152  0.51202245     0.16400
C922        C  0.17143860  0.76992558  0.51265278    -0.18000
C923        C  0.20982083  0.79885743  0.48971247    -0.19900
C924        C  0.22864097  0.82115030  0.49144110    -0.12400
C925        C  0.22786423  0.83715050  0.51540834     0.04200
C926        C  0.20790813  0.83078828  0.53641226    -0.24600
H927        H  0.13669050  0.77618104  0.57614118     0.09300
H928        H  0.16882547  0.81496470  0.57508832     0.12900
H929        H  0.17211906  0.75724555  0.49570430     0.12900
H930        H  0.21083648  0.78666122  0.47166567     0.12600
H931        H  0.24388938  0.82576238  0.47486336     0.13200
H932        H  0.20703970  0.84301223  0.55477058     0.15100
C933        C  0.15942607  0.78674838  0.98777158    -0.04900
C934        C  0.16312848  0.80744675  0.99617185    -0.04800
C935        C  0.18493039  0.82704861  0.99691552    -0.23000
C936        C  0.20323536  0.82616154  0.98872292     0.19200
C937        C  0.19955490  0.80527743  0.98212849     0.16400
C938        C  0.17775567  0.78576845  0.98242934    -0.18000
C939        C  0.21765723  0.80422367  0.97305873    -0.19900
C940        C  0.23919128  0.82373050  0.96837030    -0.12400
C941        C  0.24300536  0.84458203  0.97344063     0.04200
C942        C  0.22503677  0.84573522  0.98491862    -0.24600
H943        H  0.14921695  0.80855004  0.00058151     0.09300
H944        H  0.18744591  0.84291528  0.00221632     0.12900
H945        H  0.17509915  0.76986530  0.97615931     0.12900
H946        H  0.21505843  0.78830656  0.96800068     0.12600
H947        H  0.25279832  0.82248011  0.95965631     0.13200
H948        H  0.22781629  0.86177218  0.98864957     0.15100
C949        C  0.08755762  0.69568429  0.68502393    -0.04900
C950        C  0.06670606  0.68757583  0.70448466    -0.04800
C951        C  0.06424824  0.68759032  0.74608297    -0.23000
C952        C  0.08262803  0.69581184  0.76906531     0.19200
C953        C  0.10365781  0.70387906  0.74982724     0.16400
C954        C  0.10596282  0.70365751  0.70800395    -0.18000
C955        C  0.12212969  0.71246586  0.77278480    -0.19900
C956        C  0.11996166  0.71370923  0.81437368    -0.12400
C957        C  0.09921429  0.70604578  0.83386262     0.04200
C958        C  0.08048109  0.69669977  0.81092642    -0.24600
H959        H  0.05226203  0.68127486  0.68752114     0.09300
H960        H  0.04800877  0.68139096  0.76029350     0.12900
H961        H  0.12215465  0.70996889  0.69340527     0.12900
H962        H  0.13838716  0.71874492  0.75856804     0.12600
H963        H  0.13466625  0.72114944  0.83132857     0.13200
H964        H  0.06447547  0.69111363  0.82556342     0.15100
C965        C  0.07806440  0.68338831  0.05554247    -0.04900
C966        C  0.08982876  0.67411897  0.05594616    -0.04800
C967        C  0.08851227  0.66370791  0.08937689    -0.23000
C968        C  0.07530925  0.66222854  0.12316893     0.19200
C969        C  0.06290787  0.67096301  0.12309065     0.16400
C970        C  0.06435895  0.68152892  0.08920538    -0.18000
C971        C  0.04992230  0.66958097  0.15739806    -0.19900
C972        C  0.05004772  0.66053610  0.19187184    -0.12400
C973        C  0.06292312  0.65244941  0.19246501     0.04200
C974        C  0.07503621  0.65287202  0.15750481    -0.24600
H975        H  0.10066325  0.67550796  0.03072798     0.09300
H976        H  0.09820560  0.65718835  0.08906727     0.12900
H977        H  0.05528925  0.68871894  0.08938783     0.12900
H978        H  0.04025538  0.67614407  0.15800647     0.12600
H979        H  0.04072163  0.66060666  0.21846873     0.13200
H980        H  0.08523515  0.64693003  0.15753953     0.15100
C981        C  0.29226220  0.34868249  0.65552092    -0.04900
C982        C  0.29796736  0.35669448  0.69506508    -0.04800
C983        C  0.31986820  0.37452586  0.70353334    -0.23000
C984        C  0.33625996  0.38442299  0.67251544     0.19200
C985        C  0.32993079  0.37794681  0.63252696     0.16400
C986        C  0.30789290  0.36030055  0.62431086    -0.18000
C987        C  0.34617491  0.38756823  0.60139401    -0.19900
C988        C  0.36869114  0.40135821  0.60969701    -0.12400
C989        C  0.37525087  0.40607563  0.64920327     0.04200
C990        C  0.35902134  0.39890385  0.68065284    -0.24600
H991        H  0.28606510  0.34794265  0.71958772     0.09300
H992        H  0.32430863  0.37940399  0.73433309     0.12900
H993        H  0.30346429  0.35425871  0.59375128     0.12900
H994        H  0.34157435  0.38306472  0.57062562     0.12600
H995        H  0.38103853  0.40713778  0.58507733     0.13200
H996        H  0.36402895  0.40255646  0.71118473     0.15100
C997        C  0.42671324  0.37421048  0.73948875    -0.04900
C998        C  0.42030127  0.35356880  0.72145286    -0.04800
C999        C  0.41210125  0.33532766  0.74455502    -0.23000
C1000       C  0.41023447  0.33736912  0.78623733     0.19200
C1001       C  0.41732967  0.35822808  0.80479961     0.16400
C1002       C  0.42551307  0.37648167  0.78137401    -0.18000
C1003       C  0.41568372  0.36035529  0.84647651    -0.19900
C1004       C  0.40670778  0.34193176  0.86952068    -0.12400
C1005       C  0.39912644  0.32095630  0.85145724     0.04200
C1006       C  0.40112233  0.31886673  0.80962523    -0.24600
H1007       H  0.42105037  0.35133620  0.68932475     0.09300
H1008       H  0.40687682  0.31951886  0.72975870     0.12900
H1009       H  0.43049595  0.39231403  0.79574409     0.12900
H1010       H  0.42112144  0.37622671  0.86126884     0.12600
H1011       H  0.40545875  0.34406494  0.90160071     0.13200
H1012       H  0.39546950  0.30284317  0.79524640     0.15100
C1013       C  0.38841693  0.28430957  0.33696226    -0.04900
C1014       C  0.39331716  0.29941037  0.36957526    -0.04800
C1015       C  0.41090885  0.32192321  0.36657980    -0.23000
C1016       C  0.42344556  0.32970146  0.33054118     0.19200
C1017       C  0.41984460  0.31440867  0.29857698     0.16400
C1018       C  0.40264028  0.29164811  0.30237611    -0.18000
C1019       C  0.43215495  0.32237680  0.26226560    -0.19900
C1020       C  0.44649339  0.34530709  0.25667959    -0.12400
C1021       C  0.44874468  0.36045913  0.28741229     0.04200
C1022       C  0.43809548  0.35258640  0.32488991    -0.24600
H1023       H  0.38259747  0.29405893  0.39646764     0.09300
H1024       H  0.41363503  0.33345082  0.39144942     0.12900
H1025       H  0.39883192  0.28012551  0.27690649     0.12900
H1026       H  0.42969588  0.31089490  0.23749651     0.12600
H1027       H  0.45464542  0.35108785  0.22762891     0.13200
H1028       H  0.43997273  0.36424282  0.34889500     0.15100
C1029       C  0.47397770  0.44589805  0.39226192    -0.04900
C1030       C  0.45969268  0.45144041  0.40847542    -0.04800
C1031       C  0.45481402  0.45113542  0.44954372    -0.23000
C1032       C  0.46390164  0.44497709  0.47504033     0.19200
C1033       C  0.47889921  0.44012025  0.45927153     0.16400
C1034       C  0.48411482  0.44096138  0.41809007    -0.18000
C1035       C  0.48766543  0.43357959  0.48474125    -0.19900
C1036       C  0.48110674  0.43122637  0.52528909    -0.12400
C1037       C  0.46594757  0.43569879  0.54113115     0.04200
C1038       C  0.45769645  0.44292905  0.51582932    -0.24600
H1039       H  0.45168635  0.45528445  0.38926422     0.09300
H1040       H  0.44333784  0.45498178  0.46119970     0.12900
H1041       H  0.49510993  0.43656946  0.40598194     0.12900
H1042       H  0.49921381  0.42981778  0.47314989     0.12600
H1043       H  0.48781948  0.42582381  0.54422520     0.13200
H1044       H  0.44596982  0.44642719  0.52765959     0.15100
C1045       C  0.36913704  0.37531978  0.07491904    -0.04900
C1046       C  0.38745190  0.37536751  0.06005121    -0.04800
C1047       C  0.40628561  0.38512258  0.08261162    -0.23000
C1048       C  0.40727638  0.39517918  0.12045963     0.19200
C1049       C  0.38942892  0.39614905  0.13500376     0.16400
C1050       C  0.37049693  0.38621080  0.11222483    -0.18000
C1051       C  0.39053296  0.40644701  0.17263378    -0.19900
C1052       C  0.40869997  0.41492899  0.19626295    -0.12400
C1053       C  0.42612552  0.41323722  0.18288201     0.04200
C1054       C  0.42547317  0.40368470  0.14446077    -0.24600
H1055       H  0.38689665  0.36714539  0.03149534     0.09300
H1056       H  0.41986357  0.38433944  0.07081452     0.12900
H1057       H  0.35658282  0.38644992  0.12402068     0.12900
H1058       H  0.37708859  0.40749165  0.18420329     0.12600
H1059       H  0.40874992  0.42220062  0.22561843     0.13200
H1060       H  0.43882036  0.40233707  0.13362287     0.15100
C1061       C  0.57918236  0.56295430  0.68667549    -0.04900
C1062       C  0.57951630  0.54508543  0.69501553    -0.04800
C1063       C  0.55967283  0.52421510  0.70231417    -0.23000
C1064       C  0.53909867  0.52075648  0.70094444     0.19200
C1065       C  0.53848261  0.53879344  0.69442785     0.16400
C1066       C  0.55858873  0.55989850  0.68774367    -0.18000
C1067       C  0.51774853  0.53508026  0.69265721    -0.19900
C1068       C  0.49792753  0.51345698  0.69468374    -0.12400
C1069       C  0.49857879  0.49530953  0.69883393     0.04200
C1070       C  0.51918947  0.49926639  0.70363588    -0.24600
H1071       H  0.59515092  0.54705576  0.69471205     0.09300
H1072       H  0.56040545  0.51057144  0.70748724     0.12900
H1073       H  0.55813695  0.57357351  0.68139911     0.12900
H1074       H  0.51691282  0.54870254  0.68789768     0.12600
H1075       H  0.48222497  0.51079641  0.69085433     0.13200
H1076       H  0.51988271  0.48540325  0.70703402     0.15100
C1077       C  0.61686024  0.55857034  0.21282102    -0.04900
C1078       C  0.59962860  0.55981963  0.20385498    -0.04800
C1079       C  0.57758023  0.54082128  0.20381021    -0.23000
C1080       C  0.57239580  0.52034502  0.21333858     0.19200
C1081       C  0.58973714  0.51869042  0.22053742     0.16400
C1082       C  0.61194100  0.53778724  0.21962649    -0.18000
C1083       C  0.58444060  0.49821294  0.23053136    -0.19900
C1084       C  0.56212172  0.47980579  0.23507010    -0.12400
C1085       C  0.54478666  0.48158556  0.22953309     0.04200
C1086       C  0.55008869  0.50177774  0.21763368    -0.24600
H1087       H  0.60310697  0.57566354  0.19824212     0.09300
H1088       H  0.56449558  0.54232848  0.19793685     0.12900
H1089       H  0.62515143  0.53670975  0.22671760     0.12900
H1090       H  0.59750810  0.49662481  0.23611132     0.12600
H1091       H  0.55842204  0.46440262  0.24430143     0.13200
H1092       H  0.53683996  0.50330579  0.21318378     0.15100
C1093       C  0.65174104  0.61231919  0.51755718    -0.04900
C1094       C  0.63757801  0.59157447  0.49736225    -0.04800
C1095       C  0.63887173  0.58962458  0.45575678    -0.23000
C1096       C  0.65401129  0.60850972  0.43365209     0.19200
C1097       C  0.66822296  0.62947935  0.45372565     0.16400
C1098       C  0.66723896  0.63118214  0.49551327    -0.18000
C1099       C  0.68293169  0.64846350  0.43165110    -0.19900
C1100       C  0.68371560  0.64668126  0.39002719    -0.12400
C1101       C  0.67000087  0.62587384  0.36975266     0.04200
C1102       C  0.65512150  0.60681616  0.39184176    -0.24600
H1103       H  0.62537079  0.57688331  0.51378191     0.09300
H1104       H  0.62778864  0.57343423  0.44086738     0.12900
H1105       H  0.67792849  0.64734138  0.51081665     0.12900
H1106       H  0.69386387  0.66467933  0.44656785     0.12600
H1107       H  0.69546540  0.66153227  0.37367874     0.13200
H1108       H  0.64446390  0.59066044  0.37651943     0.15100
C1109       C  0.69437709  0.70196905  0.03706900    -0.04900
C1110       C  0.68677394  0.70709007  0.07308609    -0.04800
C1111       C  0.68701319  0.69938099  0.10906390    -0.23000
C1112       C  0.69466569  0.68621053  0.10966020     0.19200
C1113       C  0.70347297  0.68201886  0.07395457     0.16400
C1114       C  0.70353588  0.69014231  0.03805461    -0.18000
C1115       C  0.71079946  0.66858849  0.07421207    -0.19900
C1116       C  0.70831653  0.65840523  0.10889027    -0.12400
C1117       C  0.69886183  0.66173595  0.14430184     0.04200
C1118       C  0.69261658  0.67622137  0.14476915    -0.24600
H1119       H  0.67958319  0.71613573  0.07320938     0.09300
H1120       H  0.68029120  0.70288626  0.13608355     0.12900
H1121       H  0.70932240  0.68594995  0.01052531     0.12900
H1122       H  0.71756157  0.66517583  0.04714590     0.12600
H1123       H  0.71301028  0.64714544  0.10751777     0.13200
H1124       H  0.68522255  0.67887879  0.17180568     0.15100
C1125       C  0.70580173  0.75885921  0.57158132    -0.04900
C1126       C  0.69863559  0.74406503  0.53794824    -0.04800
C1127       C  0.68010624  0.72188962  0.54118471    -0.23000
C1128       C  0.66912745  0.71414541  0.57845531     0.19200
C1129       C  0.67472874  0.72947736  0.61136668     0.16400
C1130       C  0.69250505  0.75199166  0.60721312    -0.18000
C1131       C  0.66452879  0.72163096  0.64904650    -0.19900
C1132       C  0.65133914  0.69880866  0.65510083    -0.12400
C1133       C  0.64762221  0.68359131  0.62329209     0.04200
C1134       C  0.65490068  0.69123437  0.58444644    -0.24600
H1135       H  0.70852858  0.74910780  0.51011883     0.09300
H1136       H  0.67586000  0.71038852  0.51555486     0.12900
H1137       H  0.69795073  0.76330034  0.63335525     0.12900
H1138       H  0.66849265  0.73316126  0.67453305     0.12600
H1139       H  0.64567989  0.69326835  0.68519783     0.13200
H1140       H  0.65205027  0.67961472  0.55963818     0.15100
C1141       C  0.76042240  0.77300874  0.69809993    -0.04900
C1142       C  0.77274308  0.78290739  0.73253157    -0.04800
C1143       C  0.76346555  0.77320497  0.76942394    -0.23000
C1144       C  0.74149583  0.75372044  0.77262019     0.19200
C1145       C  0.72934209  0.74325211  0.73780814     0.16400
C1146       C  0.73898102  0.75272757  0.70085566    -0.18000
C1147       C  0.70729244  0.72406876  0.74068607    -0.19900
C1148       C  0.69696402  0.71590736  0.77787565    -0.12400
C1149       C  0.70846217  0.72660496  0.81298988     0.04200
C1150       C  0.73105651  0.74514011  0.81006974    -0.24600
H1151       H  0.78927042  0.79853186  0.73115421     0.09300
H1152       H  0.77311320  0.78144767  0.79567826     0.12900
H1153       H  0.72917471  0.74499890  0.67463216     0.12900
H1154       H  0.69776729  0.71579817  0.71428390     0.12600
H1155       H  0.67967300  0.70145284  0.77917543     0.13200
H1156       H  0.74012898  0.75349215  0.83689034     0.15100
C1157       C  0.71935067  0.05253476  0.62894547    -0.04900
C1158       C  0.72940568  0.05294618  0.59131800    -0.04800
C1159       C  0.74713412  0.05116091  0.58778744    -0.23000
C1160       C  0.75445651  0.04831492  0.62182394     0.19200
C1161       C  0.74669617  0.05128987  0.65997000     0.16400
C1162       C  0.72985836  0.05448580  0.66325119    -0.18000
C1163       C  0.75309431  0.04730389  0.69390129    -0.19900
C1164       C  0.76324472  0.03635001  0.68974857    -0.12400
C1165       C  0.76783624  0.03017988  0.65164497     0.04200
C1166       C  0.76624182  0.03895591  0.61816210    -0.24600
H1167       H  0.72191012  0.05194193  0.56448446     0.09300
H1168       H  0.75312093  0.04922802  0.55830225     0.12900
H1169       H  0.72238297  0.05441835  0.69248027     0.12900
H1170       H  0.74770619  0.04997398  0.72340492     0.12600
H1171       H  0.76475459  0.03017163  0.71604234     0.13200
H1172       H  0.77000201  0.03453496  0.58860691     0.15100
C1173       C  0.77684677  0.93271819  0.60626971    -0.04900
C1174       C  0.78085595  0.92731096  0.56704637    -0.04800
C1175       C  0.78623219  0.91231747  0.55945529    -0.23000
C1176       C  0.78725461  0.90213978  0.59097810     0.19200
C1177       C  0.78471502  0.90852797  0.63074109     0.16400
C1178       C  0.77989384  0.92415303  0.63819995    -0.18000
C1179       C  0.78552939  0.89803378  0.66211775    -0.19900
C1180       C  0.78735619  0.88042583  0.65408283    -0.12400
C1181       C  0.78844625  0.87312394  0.61458015     0.04200
C1182       C  0.78927275  0.88464549  0.58321470    -0.24600
H1183       H  0.77878670  0.93391646  0.54207301     0.09300
H1184       H  0.78836390  0.90776595  0.52884561     0.12900
H1185       H  0.77669382  0.92817507  0.66853302     0.12900
H1186       H  0.78372088  0.90273901  0.69278799     0.12600
H1187       H  0.78670945  0.87176553  0.67874213     0.13200
H1188       H  0.79025993  0.87920515  0.55265221     0.15100
C1189       C  0.64245146  0.74114658  0.95126067    -0.04900
C1190       C  0.64905599  0.75473004  0.98643671    -0.04800
C1191       C  0.64278095  0.76891862  0.99560280    -0.23000
C1192       C  0.63030138  0.77022436  0.96913662     0.19200
C1193       C  0.62261737  0.75591735  0.93449597     0.16400
C1194       C  0.62839431  0.74105202  0.92611899    -0.18000
C1195       C  0.61053475  0.75779530  0.90777413    -0.19900
C1196       C  0.60779602  0.77489871  0.91365605    -0.12400
C1197       C  0.61683883  0.79009091  0.94660636     0.04200
C1198       C  0.62690918  0.78680155  0.97534937    -0.24600
H1199       H  0.65952472  0.75470228  0.00655476     0.09300
H1200       H  0.64863196  0.77966227  0.02241406     0.12900
H1201       H  0.62320133  0.73053734  0.89898773     0.12900
H1202       H  0.60434670  0.74689035  0.88121330     0.12600
H1203       H  0.59988825  0.77708587  0.89120358     0.13200
H1204       H  0.63371153  0.79828239  0.00114885     0.15100
C1205       C  0.68521076  0.91830766  0.70697354    -0.04900
C1206       C  0.67264710  0.89500247  0.70173313    -0.04800
C1207       C  0.65822667  0.88133022  0.73256126    -0.23000
C1208       C  0.65604997  0.89073025  0.76911490     0.19200
C1209       C  0.66764333  0.91408592  0.77372855     0.16400
C1210       C  0.68209002  0.92767303  0.74274306    -0.18000
C1211       C  0.66541987  0.92359018  0.80994601    -0.19900
C1212       C  0.65298272  0.91028508  0.84216110    -0.12400
C1213       C  0.64251233  0.88718136  0.83894719     0.04200
C1214       C  0.64346696  0.87737826  0.80174644    -0.24600
H1215       H  0.67470495  0.88737999  0.67444753     0.09300
H1216       H  0.64935997  0.86345535  0.72827445     0.12900
H1217       H  0.69153289  0.94562508  0.74706447     0.12900
H1218       H  0.67404670  0.94145147  0.81389234     0.12600
H1219       H  0.65261095  0.91833516  0.87034071     0.13200
H1220       H  0.63556861  0.85961857  0.79881724     0.15100
C1221       C  0.59173305  0.86243450  0.04771412    -0.04900
C1222       C  0.58213438  0.87351417  0.04296580    -0.04800
C1223       C  0.57454429  0.88041309  0.07625675    -0.23000
C1224       C  0.57637032  0.87627874  0.11484533     0.19200
C1225       C  0.58477108  0.86399358  0.11979737     0.16400
C1226       C  0.59235955  0.85713984  0.08624412    -0.18000
C1227       C  0.58640578  0.85966849  0.15833786    -0.19900
C1228       C  0.58102637  0.86854828  0.19175057    -0.12400
C1229       C  0.57390334  0.88189163  0.18722077     0.04200
C1230       C  0.57090233  0.88505689  0.14855504    -0.24600
H1231       H  0.58148176  0.87779300  0.01365176     0.09300
H1232       H  0.56798103  0.88966789  0.07188592     0.12900
H1233       H  0.59957869  0.84844582  0.09025661     0.12900
H1234       H  0.59258871  0.85006425  0.16265815     0.12600
H1235       H  0.58327988  0.86568911  0.22111956     0.13200
H1236       H  0.56516380  0.89510161  0.14459641     0.15100
C1237       C  0.66498209  0.59570481  0.96116904    -0.04900
C1238       C  0.65965276  0.59078879  0.92086719    -0.04800
C1239       C  0.64699323  0.59657591  0.90589132    -0.23000
C1240       C  0.63918480  0.60673723  0.93143405     0.19200
C1241       C  0.64028552  0.60697372  0.97308670     0.16400
C1242       C  0.65286793  0.60091850  0.98788750    -0.18000
C1243       C  0.63212669  0.61679595  0.99866783    -0.19900
C1244       C  0.62707571  0.62991114  0.98317570    -0.12400
C1245       C  0.63056513  0.63352560  0.94217972     0.04200
C1246       C  0.63388875  0.61979917  0.91610605    -0.24600
H1247       H  0.66829369  0.58613626  0.89975694     0.09300
H1248       H  0.64570564  0.59562274  0.87395359     0.12900
H1249       H  0.65645962  0.60419647  0.01920050     0.12900
H1250       H  0.63224576  0.61661391  0.03068894     0.12600
H1251       H  0.62401574  0.63994986  0.00384375     0.13200
H1252       H  0.63614673  0.62217634  0.88434441     0.15100
C1253       C  0.72598280  0.65757961  0.85881690    -0.04900
C1254       C  0.71459920  0.66741715  0.86274593    -0.04800
C1255       C  0.70476975  0.66797971  0.83006680    -0.23000
C1256       C  0.70587786  0.65836157  0.79297376     0.19200
C1257       C  0.71837906  0.64958748  0.78805419     0.16400
C1258       C  0.72860771  0.64952907  0.82087642    -0.18000
C1259       C  0.71921406  0.63971297  0.75105075    -0.19900
C1260       C  0.70642623  0.63704023  0.72016863    -0.12400
C1261       C  0.69284150  0.64445370  0.72563822     0.04200
C1262       C  0.69349971  0.65606544  0.76154622    -0.24600
H1263       H  0.71232040  0.67370303  0.89158838     0.09300
H1264       H  0.69536599  0.67489456  0.83430000     0.12900
H1265       H  0.73731985  0.64187800  0.81740315     0.12900
H1266       H  0.72887593  0.63308764  0.74663301     0.12600
H1267       H  0.70640141  0.62829189  0.69265152     0.13200
H1268       H  0.68329539  0.66209571  0.76600994     0.15100
C1269       C  0.81400446  0.67478908  0.31648086    -0.04900
C1270       C  0.79922840  0.66847632  0.35012012    -0.04800
C1271       C  0.77669216  0.65092382  0.34673980    -0.23000
C1272       C  0.76884877  0.64017116  0.30943147     0.19200
C1273       C  0.78418580  0.64409946  0.27724435     0.16400
C1274       C  0.80699536  0.66070422  0.28180325    -0.18000
C1275       C  0.77626706  0.63409289  0.23943852    -0.19900
C1276       C  0.75375268  0.62328446  0.23228468    -0.12400
C1277       C  0.73913126  0.62198653  0.26320038     0.04200
C1278       C  0.74624286  0.62849408  0.30229664    -0.24600
H1279       H  0.80443584  0.67881394  0.37742929     0.09300
H1280       H  0.76512024  0.64774666  0.37186656     0.12900
H1281       H  0.81842494  0.66527023  0.25589198     0.12900
H1282       H  0.78779684  0.63678005  0.21453537     0.12600
H1283       H  0.74838851  0.61820646  0.20200175     0.13200
H1284       H  0.73476187  0.62726258  0.32616067     0.15100
C1285       C  0.81326341  0.71839776  0.19079978    -0.04900
C1286       C  0.79059686  0.70131318  0.19942663    -0.04800
C1287       C  0.77589172  0.68889692  0.16895642    -0.23000
C1288       C  0.78346641  0.69331943  0.12908616     0.19200
C1289       C  0.80595012  0.71100959  0.11983190     0.16400
C1290       C  0.82077207  0.72343684  0.15076809    -0.18000
C1291       C  0.81329382  0.71546040  0.07974232    -0.19900
C1292       C  0.79872980  0.70209686  0.04924904    -0.12400
C1293       C  0.77660884  0.68389726  0.05824123     0.04200
C1294       C  0.76906342  0.67986752  0.09836157    -0.24600
H1295       H  0.78429933  0.69698363  0.22987907     0.09300
H1296       H  0.75867429  0.67547933  0.17659824     0.12900
H1297       H  0.83818374  0.73652371  0.14365756     0.12900
H1298       H  0.83042171  0.72899482  0.07193886     0.12600
H1299       H  0.80501929  0.70554844  0.01858780     0.13200
H1300       H  0.75214864  0.66582461  0.10577589     0.15100
C1301       C  0.82156242  0.80702360  0.50029557    -0.04900
C1302       C  0.83707417  0.80362133  0.51089806    -0.04800
C1303       C  0.84834904  0.79866397  0.48167240    -0.23000
C1304       C  0.84426078  0.79694636  0.44129714     0.19200
C1305       C  0.82969519  0.80161615  0.43009489     0.16400
C1306       C  0.81852757  0.80672401  0.45962558    -0.18000
C1307       C  0.82572604  0.80003182  0.38966857    -0.19900
C1308       C  0.83502724  0.79260077  0.36086846    -0.12400
C1309       C  0.84837105  0.78654445  0.37201031     0.04200
C1310       C  0.85353994  0.78949591  0.41219529    -0.24600
H1311       H  0.83986183  0.80393610  0.54192379     0.09300
H1312       H  0.85964024  0.79535869  0.49076944     0.12900
H1313       H  0.80673017  0.80947093  0.45097545     0.12900
H1314       H  0.81471737  0.80368273  0.38048938     0.12600
H1315       H  0.83072169  0.79037330  0.33016385     0.13200
H1316       H  0.86387673  0.78493499  0.42109990     0.15100
C1317       C  0.08744188  0.74573376  0.23062751    -0.04900
C1318       C  0.09603166  0.73900268  0.19860319    -0.04800
C1319       C  0.11029914  0.73340611  0.20546254    -0.23000
C1320       C  0.11542065  0.73382083  0.24459313     0.19200
C1321       C  0.10981734  0.74401207  0.27575428     0.16400
C1322       C  0.09676526  0.75104430  0.26799843    -0.18000
C1323       C  0.11381703  0.74334061  0.31514852    -0.19900
C1324       C  0.11899714  0.72906790  0.32422670    -0.12400
C1325       C  0.12111206  0.71613843  0.29380550     0.04200
C1326       C  0.12227088  0.72086649  0.25388059    -0.24600
H1327       H  0.08943279  0.73524189  0.16932757     0.09300
H1328       H  0.11475781  0.72598017  0.18108217     0.12900
H1329       H  0.09039317  0.75645346  0.29278913     0.12900
H1330       H  0.11000287  0.75138460  0.33935736     0.12600
H1331       H  0.11848952  0.72602628  0.35518019     0.13200
H1332       H  0.12408492  0.71110414  0.23014778     0.15100
C1333       C  0.97900678  0.74062568  0.27402037    -0.04900
C1334       C  0.96928878  0.73814633  0.31269653    -0.04800
C1335       C  0.95407060  0.74318992  0.32199610    -0.23000
C1336       C  0.94787712  0.75022035  0.29243570     0.19200
C1337       C  0.95782526  0.75313469  0.25352977     0.16400
C1338       C  0.97367015  0.74868175  0.24472330    -0.18000
C1339       C  0.95097238  0.75944915  0.22376248    -0.19900
C1340       C  0.93370400  0.76183396  0.23202657    -0.12400
C1341       C  0.92325273  0.75822700  0.27030430     0.04200
C1342       C  0.93100994  0.75318870  0.30069125    -0.24600
H1343       H  0.97320856  0.73192909  0.33561741     0.09300
H1344       H  0.94654956  0.74082179  0.35192437     0.12900
H1345       H  0.98087374  0.75027228  0.21465794     0.12900
H1346       H  0.95835464  0.76169256  0.19374651     0.12600
H1347       H  0.92789460  0.76555541  0.20806684     0.13200
H1348       H  0.92300268  0.75023195  0.33030261     0.15100
C1349       C  0.04967258  0.68665618  0.47090312    -0.04900
C1350       C  0.03819197  0.69628138  0.47911836    -0.04800
C1351       C  0.02668738  0.69676363  0.44938801    -0.23000
C1352       C  0.02643847  0.68754112  0.41107264     0.19200
C1353       C  0.03668518  0.67651998  0.40331062     0.16400
C1354       C  0.04824372  0.67617385  0.43325581    -0.18000
C1355       C  0.03633185  0.66718995  0.36505455    -0.19900
C1356       C  0.02747594  0.67028369  0.33397694    -0.12400
C1357       C  0.01888678  0.68276443  0.34076086     0.04200
C1358       C  0.01744593  0.69044048  0.37978682    -0.24600
H1359       H  0.03896868  0.70434971  0.50797467     0.09300
H1360       H  0.01875820  0.70512136  0.45591168     0.12900
H1361       H  0.05699269  0.66866236  0.42662729     0.12900
H1362       H  0.04395273  0.65853779  0.35867813     0.12600
H1363       H  0.02878199  0.66424996  0.30414849     0.13200
H1364       H  0.01070737  0.69997651  0.38532821     0.15100
C1365       C  0.96059308  0.68204616  0.91203410    -0.04900
C1366       C  0.96509612  0.69363023  0.94936963    -0.04800
C1367       C  0.98706018  0.70997186  0.95975969    -0.23000
C1368       C  0.00480699  0.71503263  0.93285670     0.19200
C1369       C  0.00036707  0.70564046  0.89344862     0.16400
C1370       C  0.97820333  0.68921935  0.88317937    -0.18000
C1371       C  0.01821183  0.71103497  0.86640172    -0.19900
C1372       C  0.03987506  0.72316997  0.87968859    -0.12400
C1373       C  0.04381383  0.72976863  0.92019288     0.04200
C1374       C  0.02659628  0.72718799  0.94596052    -0.24600
H1375       H  0.95182190  0.68855165  0.97204728     0.09300
H1376       H  0.99016804  0.71730230  0.98986089     0.12900
H1377       H  0.97489085  0.68053144  0.85417535     0.12900
H1378       H  0.01520123  0.70432645  0.83589886     0.12600
H1379       H  0.05298720  0.72506058  0.85928863     0.13200
H1380       H  0.02964164  0.73242014  0.97716855     0.15100
C1381       C  0.77336855  0.60743569  0.94642929    -0.04900
C1382       C  0.77468411  0.59692518  0.97720904    -0.04800
C1383       C  0.79096629  0.59303261  0.97499755    -0.23000
C1384       C  0.80623622  0.59971609  0.94204657     0.19200
C1385       C  0.80415525  0.60914031  0.90999477     0.16400
C1386       C  0.78764312  0.61272713  0.91223162    -0.18000
C1387       C  0.81935759  0.61592792  0.87707533    -0.19900
C1388       C  0.83726756  0.61461976  0.87686604    -0.12400
C1389       C  0.84020538  0.60631915  0.90937348     0.04200
C1390       C  0.82416991  0.59816531  0.94138034    -0.24600
H1391       H  0.76380613  0.59264422  0.00379932     0.09300
H1392       H  0.79217930  0.58563023  0.99972773     0.12900
H1393       H  0.78667327  0.62069711  0.88815785     0.12900
H1394       H  0.81787968  0.62301473  0.85213387     0.12600
H1395       H  0.84923545  0.62075976  0.85166369     0.13200
H1396       H  0.82621753  0.59163741  0.96652832     0.15100
C1397       C  0.98222953  0.67547877  0.13441210    -0.04900
C1398       C  0.99115781  0.68676796  0.09880523    -0.04800
C1399       C  0.98120439  0.67629905  0.06296639    -0.23000
C1400       C  0.96187166  0.65439729  0.06201582     0.19200
C1401       C  0.95241942  0.64271076  0.09745127     0.16400
C1402       C  0.96290360  0.65326123  0.13359282    -0.18000
C1403       C  0.93235265  0.62102865  0.09599168    -0.19900
C1404       C  0.92148199  0.61146821  0.06002292    -0.12400
C1405       C  0.93108758  0.62314129  0.02493623     0.04200
C1406       C  0.95149051  0.64436576  0.02614628    -0.24600
H1407       H  0.00598350  0.70383808  0.09855334     0.09300
H1408       H  0.98846265  0.68548537  0.03602378     0.12900
H1409       H  0.95577213  0.64448384  0.16096383     0.12900
H1410       H  0.92474202  0.61179448  0.12280161     0.12600
H1411       H  0.90560544  0.59514657  0.05962386     0.13200
H1412       H  0.95871054  0.65369786  0.99931207     0.15100
C1413       C  0.90327477  0.56648139  0.82777512    -0.04900
C1414       C  0.90849863  0.55267473  0.83991224    -0.04800
C1415       C  0.91405788  0.54153670  0.81165804    -0.23000
C1416       C  0.91427176  0.54388693  0.77085567     0.19200
C1417       C  0.90742555  0.55641662  0.75839977     0.16400
C1418       C  0.90204653  0.56768654  0.78693075    -0.18000
C1419       C  0.90710004  0.55831733  0.71759457    -0.19900
C1420       C  0.91471417  0.54897700  0.68939593    -0.12400
C1421       C  0.92306319  0.53789240  0.70160612     0.04200
C1422       C  0.92220749  0.53484104  0.74237009    -0.24600
H1423       H  0.90944942  0.55142759  0.87122612     0.09300
H1424       H  0.91897643  0.53175304  0.82172956     0.12900
H1425       H  0.89776279  0.57809730  0.77730541     0.12900
H1426       H  0.90168825  0.56767810  0.70752666     0.12600
H1427       H  0.91525976  0.55151254  0.65813123     0.13200
H1428       H  0.92844842  0.52610958  0.75194056     0.15100
C1429       C  0.02885165  0.27246138  0.98743114    -0.04900
C1430       C  0.04224169  0.27294383  0.95474664    -0.04800
C1431       C  0.06544754  0.28580075  0.95739707    -0.23000
C1432       C  0.07533225  0.29841262  0.99261993     0.19200
C1433       C  0.06159442  0.29579372  0.02684134     0.16400
C1434       C  0.03842217  0.28246519  0.02417683    -0.18000
C1435       C  0.07123396  0.30849917  0.06193199    -0.19900
C1436       C  0.09400636  0.32567586  0.06169551    -0.12400
C1437       C  0.10745456  0.33003548  0.02663739     0.04200
C1438       C  0.09840141  0.31529253  0.99303946    -0.24600
H1439       H  0.03505491  0.26515570  0.92624313     0.09300
H1440       H  0.07569995  0.28734891  0.93102730     0.12900
H1441       H  0.02801904  0.28181914  0.04962844     0.12900
H1442       H  0.06092386  0.30640943  0.08855581     0.12600
H1443       H  0.10077549  0.33657732  0.08812869     0.13200
H1444       H  0.10873323  0.31847418  0.96594023     0.15100
C1445       C  0.99155152  0.30755843  0.87731258    -0.04900
C1446       C  0.00241624  0.30464746  0.84362239    -0.04800
C1447       C  0.01115207  0.31892939  0.81218586    -0.23000
C1448       C  0.00885718  0.33623906  0.81312355     0.19200
C1449       C  0.99861345  0.33991399  0.84718260     0.16400
C1450       C  0.99018325  0.32566778  0.87931621    -0.18000
C1451       C  0.99631277  0.35727808  0.84773558    -0.19900
C1452       C  0.00272261  0.36981355  0.81402803    -0.12400
C1453       C  0.01191208  0.36551641  0.77927274     0.04200
C1454       C  0.01568505  0.34919425  0.77972237    -0.24600
H1455       H  0.00408038  0.29113215  0.84135436     0.09300
H1456       H  0.01931001  0.31613271  0.78665434     0.12900
H1457       H  0.98203295  0.32826840  0.90517103     0.12900
H1458       H  0.98867532  0.36054391  0.87358280     0.12600
H1459       H  0.99951709  0.38220229  0.81451906     0.13200
H1460       H  0.02244407  0.34543322  0.75305416     0.15100
C1461       C  0.96143224  0.34943816  0.35069197    -0.04900
C1462       C  0.96578191  0.36457960  0.38296641    -0.04800
C1463       C  0.98240228  0.38737924  0.37888859    -0.23000
C1464       C  0.99498229  0.39502124  0.34272432     0.19200
C1465       C  0.98855318  0.38012998  0.30892617     0.16400
C1466       C  0.97122186  0.35752724  0.31288774    -0.18000
C1467       C  0.00140662  0.38741735  0.27307305    -0.19900
C1468       C  0.02198833  0.40831562  0.27210008    -0.12400
C1469       C  0.02955408  0.42246345  0.30653469     0.04200
C1470       C  0.01524789  0.41641032  0.34095088    -0.24600
H1471       H  0.95825619  0.35865134  0.41228487     0.09300
H1472       H  0.98688476  0.39862779  0.40496180     0.12900
H1473       H  0.96761927  0.34584820  0.28775142     0.12900
H1474       H  0.99652626  0.37626475  0.24678730     0.12600
H1475       H  0.03258130  0.41287830  0.24508262     0.13200
H1476       H  0.02094612  0.42730335  0.36761517     0.15100
C1477       C  0.94784463  0.26576837  0.24865548    -0.04900
C1478       C  0.95940453  0.25679047  0.23421054    -0.04800
C1479       C  0.96198612  0.25334540  0.19316319    -0.23000
C1480       C  0.95347040  0.25927960  0.16585514     0.19200
C1481       C  0.94175056  0.26823724  0.18009322     0.16400
C1482       C  0.93871860  0.27107725  0.22129812    -0.18000
C1483       C  0.93377179  0.27476804  0.15287898    -0.19900
C1484       C  0.93772669  0.27284856  0.11187957    -0.12400
C1485       C  0.94934750  0.26396552  0.09733872     0.04200
C1486       C  0.95692079  0.25692103  0.12459755    -0.24600
H1487       H  0.96654948  0.25255608  0.25465644     0.09300
H1488       H  0.97104738  0.24647603  0.18275918     0.12900
H1489       H  0.92993057  0.27820629  0.23203314     0.12900
H1490       H  0.92478845  0.28171477  0.16333156     0.12600
H1491       H  0.93166429  0.27828434  0.09151924     0.13200
H1492       H  0.96603995  0.25015902  0.11375344     0.15100
C1493       C  0.99394682  0.30952755  0.46434814    -0.04900
C1494       C  0.99298598  0.32089595  0.49930078    -0.04800
C1495       C  0.00820084  0.32846792  0.52910837    -0.23000
C1496       C  0.02445399  0.32445771  0.52515828     0.19200
C1497       C  0.02596190  0.31357383  0.48974948     0.16400
C1498       C  0.01084172  0.30630932  0.45955510    -0.18000
C1499       C  0.04227757  0.30968168  0.48547410    -0.19900
C1500       C  0.05629384  0.31558140  0.51648933    -0.12400
C1501       C  0.05446518  0.32560038  0.55263463     0.04200
C1502       C  0.03873160  0.33047234  0.55638345    -0.24600
H1503       H  0.98037207  0.32389672  0.50372138     0.09300
H1504       H  0.00704094  0.33718343  0.55557112     0.12900
H1505       H  0.01193097  0.29771557  0.43274044     0.12900
H1506       H  0.04381150  0.30148517  0.45849590     0.12600
H1507       H  0.06809720  0.31149638  0.51264945     0.13200
H1508       H  0.03682735  0.33789049  0.58416057     0.15100
C1509       C  0.68566050  0.06323098  0.31321890    -0.04900
C1510       C  0.66840802  0.05899453  0.34086718    -0.04800
C1511       C  0.64630685  0.04117630  0.33353783    -0.23000
C1512       C  0.64157304  0.02712735  0.29924498     0.19200
C1513       C  0.65855004  0.03316830  0.26920000     0.16400
C1514       C  0.68028792  0.05198345  0.27556030    -0.18000
C1515       C  0.65431532  0.01868791  0.23588981    -0.19900
C1516       C  0.63442410  0.99722258  0.23485631    -0.12400
C1517       C  0.61819493  0.99039007  0.26623797     0.04200
C1518       C  0.62113761  0.00596455  0.29681485    -0.24600
H1519       H  0.67216669  0.06779305  0.36975554     0.09300
H1520       H  0.63339244  0.03697694  0.35657759     0.12900
H1521       H  0.69351759  0.05557878  0.25359592     0.12900
H1522       H  0.66714897  0.02317018  0.21251613     0.12600
H1523       H  0.63230133  0.98554884  0.21074313     0.13200
H1524       H  0.60865926  0.00078377  0.32113860     0.15100
C1525       C  0.80271921  0.15220598  0.39713366    -0.04900
C1526       C  0.80110677  0.16998009  0.39624228    -0.04800
C1527       C  0.82002920  0.19203298  0.40100703    -0.23000
C1528       C  0.84083009  0.19660131  0.40663325     0.19200
C1529       C  0.84215403  0.17873005  0.41039986     0.16400
C1530       C  0.82311398  0.15672183  0.40592194    -0.18000
C1531       C  0.86277348  0.18308512  0.41620471    -0.19900
C1532       C  0.88219800  0.20481007  0.41536289    -0.12400
C1533       C  0.88139315  0.22262208  0.40885128     0.04200
C1534       C  0.86050020  0.21853858  0.40618238    -0.24600
H1535       H  0.78549742  0.16688508  0.38980147     0.09300
H1536       H  0.81859189  0.20548036  0.39848730     0.12900
H1537       H  0.82448506  0.14312458  0.40712777     0.12900
H1538       H  0.86402598  0.16958718  0.41958379     0.12600
H1539       H  0.89802615  0.20750929  0.41795163     0.13200
H1540       H  0.85966000  0.23215602  0.40134573     0.15100
C1541       C  0.72534791  0.97812928  0.51693447    -0.04900
C1542       C  0.73670381  0.97884938  0.48065719    -0.04800
C1543       C  0.73933982  0.99169282  0.45006115    -0.23000
C1544       C  0.73083838  0.00424837  0.45527289     0.19200
C1545       C  0.71818124  0.00257174  0.49060469     0.16400
C1546       C  0.71530782  0.98933966  0.52105775    -0.18000
C1547       C  0.70967413  0.01513073  0.49575272    -0.19900
C1548       C  0.71464200  0.03006218  0.46718872    -0.12400
C1549       C  0.72816201  0.03270722  0.43285761     0.04200
C1550       C  0.73566806  0.01921263  0.42659176    -0.24600
H1551       H  0.74457533  0.97037137  0.47665233     0.09300
H1552       H  0.74890183  0.99259255  0.42304918     0.12900
H1553       H  0.70663143  0.98906541  0.54893404     0.12900
H1554       H  0.69977485  0.01393695  0.52245201     0.12600
H1555       H  0.70844964  0.04006943  0.47261241     0.13200
H1556       H  0.74590868  0.02089756  0.40009225     0.15100
C1557       C  0.75517686  0.98969216  0.97347133    -0.04900
C1558       C  0.74737669  0.98169517  0.01191776    -0.04800
C1559       C  0.73393352  0.95889423  0.01753022    -0.23000
C1560       C  0.72769199  0.94384979  0.98456300     0.19200
C1561       C  0.73763368  0.95181816  0.94638932     0.16400
C1562       C  0.75188879  0.97486699  0.94123509    -0.18000
C1563       C  0.73101869  0.93668130  0.91339747    -0.19900
C1564       C  0.71272399  0.91444340  0.91734718    -0.12400
C1565       C  0.70103519  0.90712963  0.95438040     0.04200
C1566       C  0.70973199  0.92141821  0.98839921    -0.24600
H1567       H  0.75014580  0.99299894  0.03721770     0.09300
H1568       H  0.72677125  0.95305573  0.04706506     0.12900
H1569       H  0.75792779  0.98100965  0.91152418     0.12900
H1570       H  0.73863122  0.94239752  0.88401079     0.12600
H1571       H  0.70640432  0.90361988  0.89072384     0.13200
H1572       H  0.70092152  0.91578569  0.01711873     0.15100
C1573       C  0.83652878  0.11358992  0.93204054    -0.04900
C1574       C  0.85558563  0.11404415  0.93359803    -0.04800
C1575       C  0.87686083  0.13436720  0.93499945    -0.23000
C1576       C  0.87938017  0.15455149  0.93518930     0.19200
C1577       C  0.86032367  0.15415388  0.93259790     0.16400
C1578       C  0.83913861  0.13375288  0.93068588    -0.18000
C1579       C  0.86262671  0.17418845  0.93322117    -0.19900
C1580       C  0.88355114  0.19450292  0.93734297    -0.12400
C1581       C  0.90261690  0.19521023  0.94071832     0.04200
C1582       C  0.90046701  0.17511120  0.93903713    -0.24600
H1583       H  0.85399365  0.09872130  0.93479606     0.09300
H1584       H  0.89126014  0.13431018  0.93691473     0.12900
H1585       H  0.82457740  0.13364932  0.92964191     0.12900
H1586       H  0.84816815  0.17415104  0.93130459     0.12600
H1587       H  0.88472766  0.20970773  0.93862502     0.13200
H1588       H  0.91503496  0.17543773  0.94180523     0.15100
C1589       C  0.76588019  0.07358032  0.07706059    -0.04900
C1590       C  0.75796748  0.08620305  0.09055999    -0.04800
C1591       C  0.75745758  0.09185161  0.13123288    -0.23000
C1592       C  0.76477426  0.08488318  0.15899354     0.19200
C1593       C  0.77308725  0.07249875  0.14558961     0.16400
C1594       C  0.77373026  0.06709937  0.10484090    -0.18000
C1595       C  0.78009832  0.06520849  0.17324635    -0.19900
C1596       C  0.77818336  0.06949676  0.21406159    -0.12400
C1597       C  0.76967250  0.08154148  0.22780893     0.04200
C1598       C  0.76336822  0.08954346  0.19998082    -0.24600
H1599       H  0.75198992  0.09151191  0.06975686     0.09300
H1600       H  0.75104105  0.10138299  0.14103784     0.12900
H1601       H  0.78002275  0.05746415  0.09487459     0.12900
H1602       H  0.78653876  0.05570511  0.16336316     0.12600
H1603       H  0.78305674  0.06312534  0.23491187     0.13200
H1604       H  0.75650551  0.09862571  0.21027232     0.15100
C1605       C  0.72335720  0.02871067  0.85578133    -0.04900
C1606       C  0.73101940  0.02476953  0.81858842    -0.04800
C1607       C  0.71762711  0.01579951  0.78588569    -0.23000
C1608       C  0.69628461  0.01084543  0.78916077     0.19200
C1609       C  0.68809559  0.01458036  0.82616577     0.16400
C1610       C  0.70163270  0.02334262  0.85952126    -0.18000
C1611       C  0.66681698  0.01006009  0.82856827    -0.19900
C1612       C  0.65451185  0.00322903  0.79426764    -0.12400
C1613       C  0.66291347  0.00007323  0.75722533     0.04200
C1614       C  0.68349803  0.00317093  0.75538391    -0.24600
H1615       H  0.74753194  0.02857099  0.81461840     0.09300
H1616       H  0.72412111  0.01298640  0.75777340     0.12900
H1617       H  0.69543395  0.02622121  0.88794869     0.12900
H1618       H  0.66012034  0.01273305  0.85655482     0.12600
H1619       H  0.63882052  0.00123024  0.79637638     0.13200
H1620       H  0.69045195  0.00133514  0.72688394     0.15100
loop_ 
_geom_bond_atom_site_label_1 
_geom_bond_atom_site_label_2 
_geom_bond_distance 
_geom_bond_site_symmetry_2 
_ccdc_geom_bond_type 
O1            C4   1.263       .  A
O1           Cd6   2.430       .  S
C2           O11   1.262       .  A
C2            O7   1.272       .  A
C2         C1589   1.481       .  S
O3            C9   1.269       .  A
O3           Cd6   2.494       .  S
C4           O12   1.270       .  A
C4         C1605   1.491       .  S
C5           O10   1.266       .  A
C5            O8   1.265       .  A
C5         C1573   1.479       .  S
Cd6          O13   2.402       .  S
Cd6          O12   2.554       .  S
Cd6          O11   2.405   1_556  S
Cd6           O7   2.519   1_556  S
Cd6          O10   2.480       .  S
Cd6           O8   2.441       .  S
C9           O13   1.264       .  A
C9         C1557   1.469   1_545  S
O14          C17   1.271       .  A
O14         Cd19   2.492       .  S
C15          O24   1.265       .  A
C15          O20   1.267       .  A
C15        C1549   1.487       .  S
O16          C22   1.265       .  A
O16         Cd19   2.482       .  S
C17          O25   1.265       .  A
C17        C1597   1.479       .  S
C18          O23   1.269       .  A
C18          O21   1.260       .  A
C18        C1509   1.472       .  S
Cd19         O26   2.450       .  S
Cd19         O25   2.434       .  S
Cd19         O24   2.482       .  S
Cd19         O20   2.499       .  S
Cd19         O23   2.505       .  S
Cd19         O21   2.386       .  S
C22          O26   1.264       .  A
C22        C1525   1.478       .  S
O27          C30   1.272       .  A
O27         Cd32   2.506       .  S
C28          O37   1.270       .  A
C28          O33   1.265       .  A
C28        C1493   1.492       .  S
O29          C35   1.269       .  A
O29         Cd32   2.509       .  S
C30          O38   1.265       .  A
C30        C1477   1.483       .  S
C31          O36   1.268       .  A
C31          O34   1.264       .  A
C31        C1533   1.479       .  S
Cd32         O39   2.395       .  S
Cd32         O38   2.441       .  S
Cd32         O37   2.515       .  S
Cd32         O33   2.478       .  S
Cd32         O36   2.496       .  S
Cd32         O34   2.426       .  S
C35          O39   1.263       .  A
C35        C1461   1.472       .  S
O40          C43   1.264       .  A
O40         Cd45   2.448       .  S
C41          O50   1.264       .  A
C41          O46   1.272       .  A
C41        C1485   1.482       .  S
O42          C48   1.266       .  A
O42         Cd45   2.480       .  S
C43          O51   1.270       .  A
C43        C1445   1.491       .  S
C44          O49   1.269   1_455  A
C44          O47   1.264   1_456  A
C44        C1429   1.469       .  S
Cd45         O52   2.447       .  S
Cd45         O51   2.540       .  S
Cd45         O50   2.437   1_556  S
Cd45         O46   2.500   1_556  S
Cd45         O49   2.491       .  S
Cd45         O47   2.394   1_556  S
C48          O52   1.265       .  A
C48        C1581   1.479       .  S
O53          C56   1.266       .  A
O53         Cd58   2.481       .  S
C54          O63   1.264       .  A
C54          O59   1.269       .  A
C54        C1405   1.472   1_556  S
O55          C61   1.265       .  A
O55         Cd58   2.454       .  S
C56          O64   1.264       .  A
C56        C1413   1.477       .  S
C57          O62   1.265       .  A
C57          O60   1.267       .  A
C57        C1389   1.478       .  S
Cd58         O65   2.478       .  S
Cd58         O64   2.446       .  S
Cd58         O63   2.407       .  S
Cd58         O59   2.504       .  S
Cd58         O62   2.439       .  S
Cd58         O60   2.485       .  S
C61          O65   1.267       .  A
C61        C1365   1.478       .  S
O66          C69   1.269       .  A
O66         Cd71   2.498   1_655  S
C67          O76   1.264       .  A
C67          O72   1.269       .  A
C67        C1357   1.474       .  S
O68          C74   1.263       .  A
O68         Cd71   2.445       .  S
C69          O77   1.265   1_655  A
C69        C1397   1.477       .  S
C70          O75   1.267   1_655  A
C70          O73   1.263       .  A
C70        C1333   1.470       .  S
Cd71         O78   2.495       .  S
Cd71         O77   2.403       .  S
Cd71         O76   2.423       .  S
Cd71         O72   2.475       .  S
Cd71         O75   2.480       .  S
Cd71         O73   2.426   1_455  S
C74          O78   1.266       .  A
C74        C1317   1.478       .  S
O79          C82   1.264       .  A
O79         Cd84   2.431       .  S
C80          O89   1.263       .  A
C80          O85   1.267       .  A
C80        C1309   1.481       .  S
O81          C87   1.264       .  A
O81         Cd84   2.441       .  S
C82          O90   1.271       .  A
C82        C1285   1.486       .  S
C83          O88   1.263       .  A
C83          O86   1.268       .  A
C83        C1341   1.477       .  S
Cd84         O91   2.452       .  S
Cd84         O90   2.517       .  S
Cd84         O89   2.456       .  S
Cd84         O85   2.494       .  S
Cd84         O88   2.422       .  S
Cd84         O86   2.487       .  S
C87          O91   1.266       .  A
C87        C1269   1.471       .  S
O92          C95   1.267       .  A
O92         Cd97   2.485       .  S
C93         O102   1.267   1_554  A
C93          O98   1.267       .  A
C93        C1293   1.484       .  S
O94         C100   1.265       .  A
O94         Cd97   2.459       .  S
C95         O103   1.265       .  A
C95        C1253   1.483       .  S
C96         O101   1.268       .  A
C96          O99   1.265       .  A
C96        C1381   1.477       .  S
Cd97        O104   2.456       .  S
Cd97        O103   2.461       .  S
Cd97        O102   2.483       .  S
Cd97         O98   2.470   1_556  S
Cd97        O101   2.480       .  S
Cd97         O99   2.429       .  S
C100        O104   1.267       .  A
C100       C1237   1.476       .  S
O105        C108   1.263       .  A
O105       Cd110   2.451   1_554  S
C106        O115   1.269       .  A
C106        O111   1.266       .  A
C106       C1213   1.486       .  S
O107        C113   1.262       .  A
O107       Cd110   2.461       .  S
C108        O116   1.269   1_554  A
C108       C1221   1.483       .  S
C109        O114   1.263       .  A
C109        O112   1.269       .  A
C109       C1197   1.477       .  S
Cd110       O117   2.458       .  S
Cd110       O116   2.514       .  S
Cd110       O115   2.497       .  S
Cd110       O111   2.445       .  S
Cd110       O114   2.406       .  S
Cd110       O112   2.508       .  S
C113        O117   1.265       .  A
C113       C1565   1.473       .  S
O118        C121   1.263       .  A
O118       Cd123   2.453       .  S
C119        O128   1.264       .  A
C119        O124   1.267       .  A
C119       C1541   1.483       .  S
O120        C126   1.263       .  A
O120       Cd123   2.456   1_545  S
C121        O129   1.268       .  A
C121       C1205   1.484       .  S
C122        O127   1.267       .  A
C122        O125   1.261       .  A
C122       C1173   1.473       .  S
Cd123       O130   2.462       .  S
Cd123       O129   2.513       .  S
Cd123       O128   2.454       .  S
Cd123       O124   2.494       .  S
Cd123       O127   2.511       .  S
Cd123       O125   2.420       .  S
C126        O130   1.265   1_545  A
C126       C1165   1.477       .  S
O131        C134   1.269       .  A
O131       Cd136   2.499       .  S
C132        O141   1.263       .  A
C132        O137   1.267       .  A
C132       C1301   1.484       .  S
O133        C139   1.265       .  A
O133       Cd136   2.460       .  S
C134        O142   1.264       .  A
C134       C1141   1.482       .  S
C135        O140   1.264       .  A
C135        O138   1.264       .  A
C135       C1181   1.475       .  S
Cd136       O143   2.459       .  S
Cd136       O142   2.442       .  S
Cd136       O141   2.469       .  S
Cd136       O137   2.497       .  S
Cd136       O140   2.450       .  S
Cd136       O138   2.477       .  S
C139        O143   1.266       .  A
C139       C1125   1.474       .  S
O144        C147   1.268       .  A
O144       Cd149   2.493       .  S
C145        O154   1.265       .  A
C145        O150   1.269       .  A
C145       C1149   1.484       .  S
O146        C152   1.264       .  A
O146       Cd149   2.465       .  S
C147        O155   1.263       .  A
C147       C1109   1.483   1_556  S
C148        O153   1.268       .  A
C148        O151   1.265       .  A
C148       C1189   1.473       .  S
Cd149       O156   2.448       .  S
Cd149       O155   2.456       .  S
Cd149       O154   2.438       .  S
Cd149       O150   2.513       .  S
Cd149       O153   2.492       .  S
Cd149       O151   2.418       .  S
C152        O156   1.264       .  A
C152       C1245   1.473       .  S
O157        C160   1.269       .  A
O157       Cd162   2.506       .  S
C158        O167   1.270       .  A
C158        O163   1.264       .  A
C158       C1101   1.479       .  S
O159        C165   1.267       .  A
O159       Cd162   2.453       .  S
C160        O168   1.264       .  A
C160       C1117   1.484       .  S
C161        O166   1.268       .  A
C161        O164   1.263       .  A
C161       C1277   1.463       .  S
Cd162       O169   2.425       .  S
Cd162       O168   2.441       .  S
Cd162       O167   2.483       .  S
Cd162       O163   2.443       .  S
Cd162       O166   2.495       .  S
Cd162       O164   2.381       .  S
C165        O169   1.266       .  A
C165       C1077   1.471       .  S
O170        C173   1.267       .  A
O170       Cd175   2.458       .  S
C171        O180   1.263       .  A
C171        O176   1.267       .  A
C171       C1261   1.482       .  S
O172        C178   1.266       .  A
O172       Cd175   2.478       .  S
C173        O181   1.266       .  A
C173       C1093   1.476       .  S
C174        O179   1.266       .  A
C174        O177   1.264       .  A
C174       C1061   1.479       .  S
Cd175       O182   2.444       .  S
Cd175       O181   2.461       .  S
Cd175       O180   2.452       .  S
Cd175       O176   2.501       .  S
Cd175       O179   2.486       .  S
Cd175       O177   2.447       .  S
C178        O182   1.262       .  A
C178       C1133   1.476       .  S
O183        C186   1.268       .  A
O183       Cd188   2.493       .  S
C184        O193   1.265       .  A
C184        O189   1.270       .  A
C184       C1029   1.481       .  S
O185        C191   1.268       .  A
O185       Cd188   2.499       .  S
C186        O194   1.266       .  A
C186       C1053   1.489       .  S
C187        O192   1.266       .  A
C187        O190   1.266       .  A
C187       C1085   1.476       .  S
Cd188       O195   2.407       .  S
Cd188       O194   2.482       .  S
Cd188       O193   2.444       .  S
Cd188       O189   2.487       .  S
Cd188       O192   2.468       .  S
Cd188       O190   2.451       .  S
C191        O195   1.262       .  A
C191       C1021   1.473       .  S
O196        C199   1.267       .  A
O196       Cd201   2.495       .  S
C197        O206   1.271       .  A
C197        O202   1.263       .  A
C197       C1037   1.481       .  S
O198        C204   1.269       .  A
O198       Cd201   2.506       .  S
C199        O207   1.266       .  A
C199        C997   1.488       .  S
C200        O205   1.267       .  A
C200        O203   1.264       .  A
C200       C1069   1.477       .  S
Cd201       O208   2.397       .  S
Cd201       O207   2.483       .  S
Cd201       O206   2.501       .  S
Cd201       O202   2.429       .  S
Cd201       O205   2.488       .  S
Cd201       O203   2.426       .  S
C204        O208   1.262       .  A
C204        C989   1.470       .  S
O209        C212   1.267   1_556  A
O209       Cd214   2.472       .  S
C210        O219   1.267       .  A
C210        O215   1.265       .  A
C210        C957   1.482       .  S
O211        C217   1.264       .  A
O211       Cd214   2.448       .  S
C212        O220   1.265       .  A
C212        C965   1.485       .  S
C213        O218   1.266       .  A
C213        O216   1.261       .  A
C213        C933   1.473       .  S
Cd214       O221   2.449       .  S
Cd214       O220   2.497   1_556  S
Cd214       O219   2.487       .  S
Cd214       O215   2.465       .  S
Cd214       O218   2.493       .  S
Cd214       O216   2.406       .  S
C217        O221   1.268       .  A
C217       C1373   1.469       .  S
O222        C225   1.267       .  A
O222       Cd227   2.474       .  S
C223        O232   1.265       .  A
C223        O228   1.268       .  A
C223        C949   1.483       .  S
O224        C230   1.268       .  A
O224       Cd227   2.497       .  S
C225        O233   1.265       .  A
C225       C1349   1.476       .  S
C226        O231   1.268       .  A
C226        O229   1.264       .  A
C226        C917   1.471       .  S
Cd227       O234   2.364       .  S
Cd227       O233   2.445       .  S
Cd227       O232   2.461       .  S
Cd227       O228   2.479       .  S
Cd227       O231   2.479       .  S
Cd227       O229   2.395       .  S
C230        O234   1.263       .  A
C230        C901   1.455       .  S
O235        C238   1.270       .  A
O235       Cd240   2.512       .  S
C236        O245   1.267       .  A
C236        O241   1.263       .  A
C236        C885   1.485   1_556  S
O237        C243   1.269       .  A
O237       Cd240   2.474       .  S
C238        O246   1.262       .  A
C238        C869   1.479       .  S
C239        O244   1.264       .  A
C239        O242   1.266       .  A
C239        C941   1.473       .  S
Cd240       O247   2.377       .  S
Cd240       O246   2.430       .  S
Cd240       O245   2.510       .  S
Cd240       O241   2.479       .  S
Cd240       O244   2.449       .  S
Cd240       O242   2.450       .  S
C243        O247   1.264       .  A
C243        C861   1.463       .  S
O248        C251   1.269       .  A
O248       Cd253   2.467       .  S
C249        O258   1.262       .  A
C249        O254   1.269       .  A
C249        C877   1.482       .  S
O250        C256   1.267       .  A
O250       Cd253   2.493       .  S
C251        O259   1.267       .  A
C251        C845   1.483       .  S
C252        O257   1.263       .  A
C252        O255   1.265       .  A
C252        C821   1.467       .  S
Cd253       O260   2.392       .  S
Cd253       O259   2.469       .  S
Cd253       O258   2.444       .  S
Cd253       O254   2.506       .  S
Cd253       O257   2.415       .  S
Cd253       O255   2.467       .  S
C256        O260   1.263       .  A
C256        C925   1.472       .  S
O261        C264   1.268       .  A
O261       Cd266   2.529   1_565  S
C262        O271   1.265   1_565  A
C262        O267   1.267       .  A
C262       C1613   1.485   1_565  S
O263        C269   1.264       .  A
O263       Cd266   2.450       .  S
C264        O272   1.263       .  A
C264        C813   1.489       .  S
C265        O270   1.266       .  A
C265        O268   1.265       .  A
C265        C789   1.479       .  S
Cd266       O273   2.466       .  S
Cd266       O272   2.469   1_545  S
Cd266       O271   2.488       .  S
Cd266       O267   2.483   1_545  S
Cd266       O270   2.475       .  S
Cd266       O268   2.450       .  S
C269        O273   1.267       .  A
C269       C1157   1.478       .  S
O274        C277   1.272       .  A
O274       Cd279   2.499       .  S
C275        O284   1.266       .  A
C275        O280   1.265       .  A
C275        C805   1.488       .  S
O276        C282   1.262       .  A
O276       Cd279   2.465       .  S
C277        O285   1.265       .  A
C277       C1229   1.484       .  S
C278        O283   1.263       .  A
C278        O281   1.264       .  A
C278        C781   1.466       .  S
Cd279       O286   2.471       .  S
Cd279       O285   2.440       .  S
Cd279       O284   2.490       .  S
Cd279       O280   2.480       .  S
Cd279       O283   2.423       .  S
Cd279       O281   2.481       .  S
C282        O286   1.264       .  A
C282       C1517   1.473       .  S
O287        C290   1.261       .  A
O287       Cd292   2.445       .  S
C288        O297   1.267       .  A
C288        O293   1.269   1_545  A
C288        C757   1.494       .  S
O289        C295   1.258       .  A
O289       Cd292   2.383       .  S
C290        O298   1.272       .  A
C290        C893   1.490       .  S
C291        O296   1.268       .  A
C291        O294   1.267       .  A
C291        C773   1.462       .  S
Cd292       O299   2.497       .  S
Cd292       O298   2.550       .  S
Cd292       O297   2.483   1_565  S
Cd292       O293   2.502       .  S
Cd292       O296   2.442       .  S
Cd292       O294   2.421       .  S
C295        O299   1.267       .  A
C295        C749   1.468       .  S
O300        C303   1.270       .  A
O300       Cd305   2.511       .  S
C301        O310   1.271       .  A
C301        O306   1.263       .  A
C301        C725   1.497       .  S
O302        C308   1.265       .  A
O302       Cd305   2.490       .  S
C303        O311   1.266       .  A
C303        C765   1.498       .  S
C304        O309   1.265       .  A
C304        O307   1.271       .  A
C304        C797   1.480       .  S
Cd305       O312   2.406       .  S
Cd305       O311   2.517       .  S
Cd305       O310   2.545       .  S
Cd305       O306   2.503       .  S
Cd305       O309   2.417       .  S
Cd305       O307   2.501       .  S
C308        O312   1.262       .  A
C308        C829   1.469   1_545  S
O313        C316   1.263       .  A
O313       Cd318   2.494       .  S
C314        O323   1.263       .  A
C314        O319   1.275       .  A
C314        C709   1.488   1_556  S
O315        C321   1.263       .  A
O315       Cd318   2.424       .  S
C316        O324   1.269       .  A
C316        C733   1.494       .  S
C317        O322   1.266       .  A
C317        O320   1.257       .  A
C317        C853   1.464       .  S
Cd318       O325   2.508       .  S
Cd318       O324   2.541       .  S
Cd318       O323   2.413       .  S
Cd318       O319   2.554       .  S
Cd318       O322   2.520       .  S
Cd318       O320   2.373       .  S
C321        O325   1.270       .  A
C321        C693   1.481       .  S
O326        C329   1.268       .  A
O326       Cd331   2.440       .  S
C327        O336   1.277       .  A
C327        O332   1.266       .  A
C327        C837   1.484   1_545  S
O328        C334   1.270       .  A
O328       Cd331   2.432       .  S
C329        O337   1.276       .  A
C329        C717   1.488       .  S
C330        O335   1.266       .  A
C330        O333   1.276       .  A
C330        C741   1.470       .  S
Cd331       O338   2.445       .  S
Cd331       O337   2.492       .  S
Cd331       O336   2.497       .  S
Cd331       O332   2.397       .  S
Cd331       O335   2.355       .  S
Cd331       O333   2.467       .  S
C334        O338   1.272       .  A
C334        C677   1.477       .  S
O339        C342   1.267       .  A
O339       Cd344   2.498       .  S
C340        O349   1.260       .  A
C340        O345   1.269       .  A
C340        C653   1.481       .  S
O341        C347   1.266       .  A
O341       Cd344   2.462       .  S
C342        O350   1.263       .  A
C342        C661   1.482       .  S
C343        O348   1.265       .  A
C343        O346   1.265       .  A
C343        C685   1.478       .  S
Cd344       O351   2.446       .  S
Cd344       O350   2.451       .  S
Cd344       O349   2.446       .  S
Cd344       O345   2.508       .  S
Cd344       O348   2.466       .  S
Cd344       O346   2.468       .  S
C347        O351   1.267       .  A
C347       C1013   1.473       .  S
O352        C355   1.261   1_556  A
O352       Cd357   2.442       .  S
C353        O362   1.266       .  A
C353        O358   1.265       .  A
C353       C1005   1.488       .  S
O354        C360   1.264       .  A
O354       Cd357   2.450       .  S
C355        O363   1.269   1_554  A
C355        C645   1.477       .  S
C356        O361   1.266       .  A
C356        O359   1.264       .  A
C356        C701   1.478       .  S
Cd357       O364   2.463       .  S
Cd357       O363   2.523       .  S
Cd357       O362   2.491       .  S
Cd357       O358   2.498       .  S
Cd357       O361   2.477       .  S
Cd357       O359   2.443       .  S
C360        O364   1.269       .  A
C360        C637   1.473       .  S
O365        C368   1.270       .  A
O365       Cd370   2.528   1_556  S
C366        O375   1.267       .  A
C366        O371   1.262       .  A
C366        C621   1.491       .  S
O367        C373   1.265       .  A
O367       Cd370   2.435       .  S
C368        O376   1.265       .  A
C368        C597   1.491       .  S
C369        O374   1.262       .  A
C369        O372   1.268   1_554  A
C369        C589   1.480       .  S
Cd370       O377   2.471   1_554  S
Cd370       O376   2.459   1_554  S
Cd370       O375   2.523       .  S
Cd370       O371   2.487       .  S
Cd370       O374   2.453       .  S
Cd370       O372   2.500   1_554  S
C373        O377   1.265   1_554  A
C373       C1437   1.472       .  S
O378        C381   1.270       .  A
O378       Cd383   2.538       .  S
C379        O388   1.263       .  A
C379        O384   1.272       .  A
C379        C605   1.483       .  S
O380        C386   1.264       .  A
O380       Cd383   2.437       .  S
C381        O389   1.264       .  A
C381       C1501   1.494       .  S
C382        O387   1.269       .  A
C382        O385   1.265       .  A
C382        C565   1.483       .  S
Cd383       O390   2.478       .  S
Cd383       O389   2.457       .  S
Cd383       O388   2.422       .  S
Cd383       O384   2.546       .  S
Cd383       O387   2.503       .  S
Cd383       O385   2.437       .  S
C386        O390   1.267       .  A
C386        C549   1.477       .  S
O391        C394   1.268       .  A
O391       Cd396   2.507       .  S
C392        O401   1.264       .  A
C392        O397   1.270       .  A
C392        C533   1.486       .  S
O393        C399   1.264       .  A
O393       Cd396   2.445       .  S
C394        O402   1.263       .  A
C394        C669   1.485       .  S
C395        O400   1.263       .  A
C395        O398   1.268       .  A
C395        C573   1.480       .  S
Cd396       O403   2.444       .  S
Cd396       O402   2.467       .  S
Cd396       O401   2.462       .  S
Cd396       O397   2.495       .  S
Cd396       O400   2.421       .  S
Cd396       O398   2.506       .  S
C399        O403   1.268       .  A
C399        C981   1.469       .  S
O404        C407   1.260       .  A
O404       Cd409   2.437   1_556  S
C405        O414   1.271       .  A
C405        O410   1.267       .  A
C405       C1045   1.491       .  S
O406        C412   1.262       .  A
O406       Cd409   2.456       .  S
C407        O415   1.272       .  A
C407        C541   1.490       .  S
C408        O413   1.267       .  A
C408        O411   1.267       .  A
C408        C581   1.480       .  S
Cd409       O416   2.468       .  S
Cd409       O415   2.550   1_554  S
Cd409       O414   2.506       .  S
Cd409       O410   2.478       .  S
Cd409       O413   2.451       .  S
Cd409       O411   2.471       .  S
C412        O416   1.265       .  A
C412        C629   1.468       .  S
O417        C420   1.268       .  A
O417       Cd422   2.505       .  S
C418        O427   1.270       .  A
C418        O423   1.262       .  A
C418        C525   1.489       .  S
O419        C425   1.266       .  A
O419       Cd422   2.493   1_655  S
C420        O428   1.263       .  A
C420       C1453   1.489       .  S
C421        O426   1.267       .  A
C421        O424   1.263       .  A
C421        C509   1.475       .  S
Cd422       O429   2.432   1_455  S
Cd422       O428   2.476       .  S
Cd422       O427   2.558       .  S
Cd422       O423   2.440       .  S
Cd422       O426   2.496   1_455  S
Cd422       O424   2.422   1_455  S
C425        O429   1.263       .  A
C425        C557   1.474       .  S
O430        C433   1.269       .  A
O430       Cd435   2.513       .  S
C431        O440   1.262       .  A
C431        O436   1.268       .  A
C431        C613   1.489       .  S
O432        C438   1.265       .  A
O432       Cd435   2.473       .  S
C433        O441   1.266       .  A
C433        C517   1.493       .  S
C434        O439   1.270       .  A
C434        O437   1.263       .  A
C434        C485   1.484       .  S
Cd435       O442   2.470       .  S
Cd435       O441   2.474       .  S
Cd435       O440   2.491       .  S
Cd435       O436   2.527       .  S
Cd435       O439   2.538       .  S
Cd435       O437   2.413       .  S
C438        O442   1.262       .  A
C438       C1469   1.475       .  S
O443        C446   1.269       .  A
O443       Cd448   2.522       .  S
C444        O453   1.265       .  A
C444        O449   1.268       .  A
C444        C973   1.486       .  S
O445        C451   1.266       .  A
O445       Cd448   2.464       .  S
C446        O454   1.266       .  A
C446        C469   1.489       .  S
C447        O452   1.268       .  A
C447        O450   1.265       .  A
C447        C493   1.485       .  S
Cd448       O455   2.469       .  S
Cd448       O454   2.452       .  S
Cd448       O453   2.446       .  S
Cd448       O449   2.505       .  S
Cd448       O452   2.514       .  S
Cd448       O450   2.439       .  S
C451        O455   1.264       .  A
C451       C1325   1.478       .  S
O456        C459   1.268       .  A
O456       Cd461   2.487       .  S
C457        O466   1.265       .  A
C457        O462   1.274       .  A
C457        C477   1.487       .  S
O458        C464   1.263   1_655  A
O458       Cd461   2.414       .  S
C459        O467   1.265       .  A
C459       C1421   1.476       .  S
C460        O465   1.263       .  A
C460        O463   1.271       .  A
C460        C501   1.479       .  S
Cd461       O468   2.468       .  S
Cd461       O467   2.452       .  S
Cd461       O466   2.421       .  S
Cd461       O462   2.512       .  S
Cd461       O465   2.399       .  S
Cd461       O463   2.508       .  S
C464        O468   1.269   1_455  A
C464        C909   1.468       .  S
C469        C470   1.407       .  A
C469        C474   1.412       .  A
C470        C471   1.394       .  A
C470        H479   1.083       .  S
C471        C472   1.400       .  A
C471        H480   1.084       .  S
C472        C478   1.403   1_455  A
C472        C473   1.413       .  A
C473        C475   1.407   1_455  A
C473        C474   1.414       .  A
C474        H481   1.084       .  S
C475        C476   1.406       .  A
C475        H482   1.083       .  S
C476        C477   1.405       .  A
C476        H483   1.083       .  S
C477        C478   1.408       .  A
C478        H484   1.084   1_655  S
C485        C486   1.406       .  A
C485        C490   1.411       .  A
C486        C487   1.391       .  A
C486        H495   1.083       .  S
C487        C488   1.397       .  A
C487        H496   1.084       .  S
C488        C494   1.400       .  A
C488        C489   1.414       .  A
C489        C491   1.406       .  A
C489        C490   1.414       .  A
C490        H497   1.084       .  S
C491        C492   1.406       .  A
C491        H498   1.083       .  S
C492        C493   1.407       .  A
C492        H499   1.083       .  S
C493        C494   1.404       .  A
C494        H500   1.084       .  S
C501        C502   1.405       .  A
C501        C506   1.405       .  A
C502        C503   1.403       .  A
C502        H511   1.083       .  S
C503        C504   1.405       .  A
C503        H512   1.083       .  S
C504        C510   1.408       .  A
C504        C505   1.413       .  A
C505        C507   1.399       .  A
C505        C506   1.398       .  A
C506        H513   1.085       .  S
C507        C508   1.392       .  A
C507        H514   1.084       .  S
C508        C509   1.404       .  A
C508        H515   1.083       .  S
C509        C510   1.408       .  A
C510        H516   1.084       .  S
C517        C518   1.408       .  A
C517        C522   1.408       .  A
C518        C519   1.406       .  A
C518        H527   1.083       .  S
C519        C520   1.406       .  A
C519        H528   1.083       .  S
C520        C526   1.416       .  A
C520        C521   1.415       .  A
C521        C523   1.401       .  A
C521        C522   1.408       .  A
C522        H529   1.084       .  S
C523        C524   1.396       .  A
C523        H530   1.084       .  S
C524        C525   1.406       .  A
C524        H531   1.084       .  S
C525        C526   1.411       .  A
C526        H532   1.084       .  S
C533        C534   1.404       .  A
C533        C538   1.412       .  A
C534        C535   1.400       .  A
C534        H543   1.083       .  S
C535        C536   1.405       .  A
C535        H544   1.084       .  S
C536        C542   1.406       .  A
C536        C537   1.411       .  A
C537        C539   1.407       .  A
C537        C538   1.409       .  A
C538        H545   1.084       .  S
C539        C540   1.404       .  A
C539        H546   1.084       .  S
C540        C541   1.405       .  A
C540        H547   1.083       .  S
C541        C542   1.412       .  A
C542        H548   1.084       .  S
C549        C550   1.405       .  A
C549        C554   1.408   1_455  A
C550        C551   1.398   1_455  A
C550        H559   1.083       .  S
C551        C552   1.402       .  A
C551        H560   1.083       .  S
C552        C558   1.405       .  A
C552        C553   1.415       .  A
C553        C555   1.403       .  A
C553        C554   1.405       .  A
C554        H561   1.085   1_655  S
C555        C556   1.398       .  A
C555        H562   1.084       .  S
C556        C557   1.403       .  A
C556        H563   1.082       .  S
C557        C558   1.406       .  A
C558        H564   1.085       .  S
C565        C566   1.406       .  A
C565        C570   1.409       .  A
C566        C567   1.394       .  A
C566        H575   1.083       .  S
C567        C568   1.399       .  A
C567        H576   1.084       .  S
C568        C574   1.400       .  A
C568        C569   1.413       .  A
C569        C571   1.405       .  A
C569        C570   1.409       .  A
C570        H577   1.084       .  S
C571        C572   1.403       .  A
C571        H578   1.083       .  S
C572        C573   1.405       .  A
C572        H579   1.083       .  S
C573        C574   1.405       .  A
C574        H580   1.084       .  S
C581        C582   1.406       .  A
C581        C586   1.406       .  A
C582        C583   1.399       .  A
C582        H591   1.083       .  S
C583        C584   1.403       .  A
C583        H592   1.084       .  S
C584        C590   1.405       .  A
C584        C585   1.413       .  A
C585        C587   1.403   1_554  A
C585        C586   1.403       .  A
C586        H593   1.084   1_554  S
C587        C588   1.398       .  A
C587        H594   1.084       .  S
C588        C589   1.404   1_556  A
C588        H595   1.083       .  S
C589        C590   1.409       .  A
C590        H596   1.084       .  S
C597        C598   1.407       .  A
C597        C602   1.407       .  A
C598        C599   1.406       .  A
C598        H607   1.083       .  S
C599        C600   1.407       .  A
C599        H608   1.083       .  S
C600        C606   1.416       .  A
C600        C601   1.414       .  A
C601        C603   1.400       .  A
C601        C602   1.405       .  A
C602        H609   1.084       .  S
C603        C604   1.395       .  A
C603        H610   1.084       .  S
C604        C605   1.404       .  A
C604        H611   1.084       .  S
C605        C606   1.411       .  A
C606        H612   1.084       .  S
C613        C614   1.405       .  A
C613        C618   1.411       .  A
C614        C615   1.402       .  A
C614        H623   1.083       .  S
C615        C616   1.404       .  A
C615        H624   1.083       .  S
C616        C622   1.410       .  A
C616        C617   1.413       .  A
C617        C619   1.405       .  A
C617        C618   1.411       .  A
C618        H625   1.084       .  S
C619        C620   1.402       .  A
C619        H626   1.083       .  S
C620        C621   1.406       .  A
C620        H627   1.083       .  S
C621        C622   1.411       .  A
C622        H628   1.084       .  S
C629        C630   1.401       .  A
C629        C634   1.406   1_554  A
C630        C631   1.398       .  A
C630        H639   1.083       .  S
C631        C632   1.405   1_554  A
C631        H640   1.080       .  S
C632        C638   1.402       .  A
C632        C633   1.413       .  A
C633        C635   1.404       .  A
C633        C634   1.400       .  A
C634        H641   1.085       .  S
C635        C636   1.398       .  A
C635        H642   1.084       .  S
C636        C637   1.403       .  A
C636        H643   1.083       .  S
C637        C638   1.407       .  A
C638        H644   1.083       .  S
C645        C646   1.402       .  A
C645        C650   1.405       .  A
C646        C647   1.404       .  A
C646        H655   1.083       .  S
C647        C648   1.408       .  A
C647        H656   1.083       .  S
C648        C654   1.406       .  A
C648        C649   1.411       .  A
C649        C651   1.404       .  A
C649        C650   1.401       .  A
C650        H657   1.081       .  S
C651        C652   1.397       .  A
C651        H658   1.083       .  S
C652        C653   1.403       .  A
C652        H659   1.083       .  S
C653        C654   1.412       .  A
C654        H660   1.084       .  S
C661        C662   1.405       .  A
C661        C666   1.407       .  A
C662        C663   1.401       .  A
C662        H671   1.083       .  S
C663        C664   1.405       .  A
C663        H672   1.084       .  S
C664        C670   1.407       .  A
C664        C665   1.412       .  A
C665        C667   1.403       .  A
C665        C666   1.404       .  A
C666        H673   1.084       .  S
C667        C668   1.398       .  A
C667        H674   1.084       .  S
C668        C669   1.405       .  A
C668        H675   1.083       .  S
C669        C670   1.410       .  A
C670        H676   1.084       .  S
C677        C678   1.405       .  A
C677        C682   1.406       .  A
C678        C679   1.397       .  A
C678        H687   1.083       .  S
C679        C680   1.402       .  A
C679        H688   1.084       .  S
C680        C686   1.403       .  A
C680        C681   1.414       .  A
C681        C683   1.402       .  A
C681        C682   1.403       .  A
C682        H689   1.084       .  S
C683        C684   1.397       .  A
C683        H690   1.084       .  S
C684        C685   1.406       .  A
C684        H691   1.083       .  S
C685        C686   1.406       .  A
C686        H692   1.084       .  S
C693        C694   1.407       .  A
C693        C698   1.407       .  A
C694        C695   1.393       .  A
C694        H703   1.083       .  S
C695        C696   1.399       .  A
C695        H704   1.084       .  S
C696        C702   1.401       .  A
C696        C697   1.414       .  A
C697        C699   1.404       .  A
C697        C698   1.408       .  A
C698        H705   1.084       .  S
C699        C700   1.400       .  A
C699        H706   1.083       .  S
C700        C701   1.406       .  A
C700        H707   1.083       .  S
C701        C702   1.404       .  A
C702        H708   1.084       .  S
C709        C710   1.404       .  A
C709        C714   1.411       .  A
C710        C711   1.406       .  A
C710        H719   1.083       .  S
C711        C712   1.408       .  A
C711        H720   1.083       .  S
C712        C718   1.410       .  A
C712        C713   1.411       .  A
C713        C715   1.404       .  A
C713        C714   1.404       .  A
C714        H721   1.084       .  S
C715        C716   1.399       .  A
C715        H722   1.084       .  S
C716        C717   1.404       .  A
C716        H723   1.083       .  S
C717        C718   1.414       .  A
C718        H724   1.084       .  S
C725        C726   1.405       .  A
C725        C730   1.415       .  A
C726        C727   1.403       .  A
C726        H735   1.083       .  S
C727        C728   1.405       .  A
C727        H736   1.083       .  S
C728        C734   1.413       .  A
C728        C729   1.413       .  A
C729        C731   1.407       .  A
C729        C730   1.416       .  A
C730        H737   1.084       .  S
C731        C732   1.405       .  A
C731        H738   1.083       .  S
C732        C733   1.406       .  A
C732        H739   1.083       .  S
C733        C734   1.411       .  A
C734        H740   1.084       .  S
C741        C742   1.402       .  A
C741        C746   1.407       .  A
C742        C743   1.397       .  A
C742        H751   1.083       .  S
C743        C744   1.404       .  A
C743        H752   1.084       .  S
C744        C750   1.396   1_545  A
C744        C745   1.411   1_545  A
C745        C747   1.403       .  A
C745        C746   1.395   1_565  A
C746        H753   1.084   1_545  S
C747        C748   1.396       .  A
C747        H754   1.084       .  S
C748        C749   1.402       .  A
C748        H755   1.083       .  S
C749        C750   1.407       .  A
C750        H756   1.085   1_565  S
C757        C758   1.407       .  A
C757        C762   1.412       .  A
C758        C759   1.405       .  A
C758        H767   1.083       .  S
C759        C760   1.406       .  A
C759        H768   1.083       .  S
C760        C766   1.417       .  A
C760        C761   1.413       .  A
C761        C763   1.403       .  A
C761        C762   1.412       .  A
C762        H769   1.084       .  S
C763        C764   1.401       .  A
C763        H770   1.084       .  S
C764        C765   1.407       .  A
C764        H771   1.083       .  S
C765        C766   1.414       .  A
C766        H772   1.084       .  S
C773        C774   1.402       .  A
C773        C778   1.403       .  A
C774        C775   1.393       .  A
C774        H783   1.084       .  S
C775        C776   1.400       .  A
C775        H784   1.084       .  S
C776        C782   1.398       .  A
C776        C777   1.415       .  A
C777        C779   1.403       .  A
C777        C778   1.402       .  A
C778        H785   1.085       .  S
C779        C780   1.398       .  A
C779        H786   1.084       .  S
C780        C781   1.403       .  A
C780        H787   1.083       .  S
C781        C782   1.401       .  A
C782        H788   1.085       .  S
C789        C790   1.406       .  A
C789        C794   1.405       .  A
C790        C791   1.400       .  A
C790        H799   1.083       .  S
C791        C792   1.403       .  A
C791        H800   1.083       .  S
C792        C798   1.408       .  A
C792        C793   1.415       .  A
C793        C795   1.399       .  A
C793        C794   1.402       .  A
C794        H801   1.084       .  S
C795        C796   1.394       .  A
C795        H802   1.084       .  S
C796        C797   1.406       .  A
C796        H803   1.083       .  S
C797        C798   1.407       .  A
C798        H804   1.084       .  S
C805        C806   1.407       .  A
C805        C810   1.408       .  A
C806        C807   1.401       .  A
C806        H815   1.083       .  S
C807        C808   1.403       .  A
C807        H816   1.084       .  S
C808        C814   1.411       .  A
C808        C809   1.414       .  A
C809        C811   1.402       .  A
C809        C810   1.409       .  A
C810        H817   1.084       .  S
C811        C812   1.399       .  A
C811        H818   1.084       .  S
C812        C813   1.408       .  A
C812        H819   1.083       .  S
C813        C814   1.409       .  A
C814        H820   1.084       .  S
C821        C822   1.403       .  A
C821        C826   1.406       .  A
C822        C823   1.391       .  A
C822        H831   1.083       .  S
C823        C824   1.399       .  A
C823        H832   1.084       .  S
C824        C830   1.395       .  A
C824        C825   1.413       .  A
C825        C827   1.405       .  A
C825        C826   1.402       .  A
C826        H833   1.084       .  S
C827        C828   1.400       .  A
C827        H834   1.084       .  S
C828        C829   1.403       .  A
C828        H835   1.083       .  S
C829        C830   1.402       .  A
C830        H836   1.085       .  S
C837        C838   1.405       .  A
C837        C842   1.409   1_565  A
C838        C839   1.403       .  A
C838        H847   1.083       .  S
C839        C840   1.406       .  A
C839        H848   1.083       .  S
C840        C846   1.409       .  A
C840        C841   1.412       .  A
C841        C843   1.402       .  A
C841        C842   1.403   1_565  A
C842        H849   1.084       .  S
C843        C844   1.396       .  A
C843        H850   1.084   1_565  S
C844        C845   1.405       .  A
C844        H851   1.083       .  S
C845        C846   1.410       .  A
C846        H852   1.084       .  S
C853        C854   1.400       .  A
C853        C858   1.405       .  A
C854        C855   1.397       .  A
C854        H863   1.083       .  S
C855        C856   1.404   1_545  A
C855        H864   1.084   1_545  S
C856        C862   1.395       .  A
C856        C857   1.412   1_565  A
C857        C859   1.404   1_545  A
C857        C858   1.394       .  A
C858        H865   1.085       .  S
C859        C860   1.396       .  A
C859        H866   1.084   1_565  S
C860        C861   1.401       .  A
C860        H867   1.083   1_556  S
C861        C862   1.404       .  A
C862        H868   1.085       .  S
C869        C870   1.403       .  A
C869        C874   1.409       .  A
C870        C871   1.400       .  A
C870        H879   1.083       .  S
C871        C872   1.405       .  A
C871        H880   1.083       .  S
C872        C878   1.404       .  A
C872        C873   1.412       .  A
C873        C875   1.404       .  A
C873        C874   1.403       .  A
C874        H881   1.084       .  S
C875        C876   1.399       .  A
C875        H882   1.084       .  S
C876        C877   1.404       .  A
C876        H883   1.083       .  S
C877        C878   1.409       .  A
C878        H884   1.084       .  S
C885        C886   1.405       .  A
C885        C890   1.410       .  A
C886        C887   1.400       .  A
C886        H895   1.083       .  S
C887        C888   1.405       .  A
C887        H896   1.084       .  S
C888        C894   1.407       .  A
C888        C889   1.412       .  A
C889        C891   1.406       .  A
C889        C890   1.410       .  A
C890        H897   1.084       .  S
C891        C892   1.404       .  A
C891        H898   1.083       .  S
C892        C893   1.405       .  A
C892        H899   1.083       .  S
C893        C894   1.412       .  A
C894        H900   1.084       .  S
C901        C902   1.401       .  A
C901        C906   1.401       .  A
C902        C903   1.396       .  A
C902        H911   1.083       .  S
C903        C904   1.404       .  A
C903        H912   1.084       .  S
C904        C910   1.398       .  A
C904        C905   1.414       .  A
C905        C907   1.403       .  A
C905        C906   1.398       .  A
C906        H913   1.085       .  S
C907        C908   1.396       .  A
C907        H914   1.084       .  S
C908        C909   1.402       .  A
C908        H915   1.083       .  S
C909        C910   1.406       .  A
C910        H916   1.085       .  S
C917        C918   1.405       .  A
C917        C922   1.407       .  A
C918        C919   1.388       .  A
C918        H927   1.083       .  S
C919        C920   1.397       .  A
C919        H928   1.084       .  S
C920        C926   1.392       .  A
C920        C921   1.413       .  A
C921        C923   1.405       .  A
C921        C922   1.406       .  A
C922        H929   1.084       .  S
C923        C924   1.402       .  A
C923        H930   1.083       .  S
C924        C925   1.405       .  A
C924        H931   1.083       .  S
C925        C926   1.401       .  A
C926        H932   1.085       .  S
C933        C934   1.404       .  A
C933        C938   1.404       .  A
C934        C935   1.399       .  A
C934        H943   1.083   1_556  S
C935        C936   1.404       .  A
C935        H944   1.084   1_556  S
C936        C942   1.403       .  A
C936        C937   1.413       .  A
C937        C939   1.400       .  A
C937        C938   1.396       .  A
C938        H945   1.084       .  S
C939        C940   1.393       .  A
C939        H946   1.084       .  S
C940        C941   1.403       .  A
C940        H947   1.083       .  S
C941        C942   1.407       .  A
C942        H948   1.084       .  S
C949        C950   1.405       .  A
C949        C954   1.408       .  A
C950        C951   1.399       .  A
C950        H959   1.083       .  S
C951        C952   1.403       .  A
C951        H960   1.084       .  S
C952        C958   1.407       .  A
C952        C953   1.414       .  A
C953        C955   1.403       .  A
C953        C954   1.406       .  A
C954        H961   1.084       .  S
C955        C956   1.399       .  A
C955        H962   1.084       .  S
C956        C957   1.406       .  A
C956        H963   1.083       .  S
C957        C958   1.408       .  A
C958        H964   1.084       .  S
C965        C966   1.405       .  A
C965        C970   1.412       .  A
C966        C967   1.395       .  A
C966        H975   1.083       .  S
C967        C968   1.401       .  A
C967        H976   1.084       .  S
C968        C974   1.403       .  A
C968        C969   1.413       .  A
C969        C971   1.406       .  A
C969        C970   1.411       .  A
C970        H977   1.084       .  S
C971        C972   1.404       .  A
C971        H978   1.084       .  S
C972        C973   1.407       .  A
C972        H979   1.083       .  S
C973        C974   1.406       .  A
C974        H980   1.084       .  S
C981        C982   1.406       .  A
C981        C986   1.400       .  A
C982        C983   1.397       .  A
C982        H991   1.083       .  S
C983        C984   1.402       .  A
C983        H992   1.084       .  S
C984        C990   1.405       .  A
C984        C985   1.416       .  A
C985        C987   1.398       .  A
C985        C986   1.399       .  A
C986        H993   1.085       .  S
C987        C988   1.391       .  A
C987        H994   1.084       .  S
C988        C989   1.405       .  A
C988        H995   1.084       .  S
C989        C990   1.404       .  A
C990        H996   1.084       .  S
C997        C998   1.406       .  A
C997       C1002   1.409       .  A
C998        C999   1.401       .  A
C998       H1007   1.083       .  S
C999       C1000   1.404       .  A
C999       H1008   1.084       .  S
C1000      C1006   1.410       .  A
C1000      C1001   1.414       .  A
C1001      C1003   1.403       .  A
C1001      C1002   1.408       .  A
C1002      H1009   1.084       .  S
C1003      C1004   1.400       .  A
C1003      H1010   1.084       .  S
C1004      C1005   1.406       .  A
C1004      H1011   1.083       .  S
C1005      C1006   1.410       .  A
C1006      H1012   1.084       .  S
C1013      C1014   1.403       .  A
C1013      C1018   1.408       .  A
C1014      C1015   1.395       .  A
C1014      H1023   1.083       .  S
C1015      C1016   1.401       .  A
C1015      H1024   1.084       .  S
C1016      C1022   1.399       .  A
C1016      C1017   1.413       .  A
C1017      C1019   1.405       .  A
C1017      C1018   1.404       .  A
C1018      H1025   1.084       .  S
C1019      C1020   1.400       .  A
C1019      H1026   1.084       .  S
C1020      C1021   1.403       .  A
C1020      H1027   1.083       .  S
C1021      C1022   1.405       .  A
C1022      H1028   1.085       .  S
C1029      C1030   1.404       .  A
C1029      C1034   1.409       .  A
C1030      C1031   1.398       .  A
C1030      H1039   1.083       .  S
C1031      C1032   1.403       .  A
C1031      H1040   1.084       .  S
C1032      C1038   1.403       .  A
C1032      C1033   1.412       .  A
C1033      C1035   1.405       .  A
C1033      C1034   1.405       .  A
C1034      H1041   1.084       .  S
C1035      C1036   1.400       .  A
C1035      H1042   1.084       .  S
C1036      C1037   1.404       .  A
C1036      H1043   1.083       .  S
C1037      C1038   1.408       .  A
C1038      H1044   1.084       .  S
C1045      C1046   1.406       .  A
C1045      C1050   1.410       .  A
C1046      C1047   1.402       .  A
C1046      H1055   1.083       .  S
C1047      C1048   1.404       .  A
C1047      H1056   1.084       .  S
C1048      C1054   1.410       .  A
C1048      C1049   1.413       .  A
C1049      C1051   1.404       .  A
C1049      C1050   1.410       .  A
C1050      H1057   1.084       .  S
C1051      C1052   1.401       .  A
C1051      H1058   1.084       .  S
C1052      C1053   1.406       .  A
C1052      H1059   1.083       .  S
C1053      C1054   1.410       .  A
C1054      H1060   1.084       .  S
C1061      C1062   1.405       .  A
C1061      C1066   1.408       .  A
C1062      C1063   1.394       .  A
C1062      H1071   1.083       .  S
C1063      C1064   1.400       .  A
C1063      H1072   1.084       .  S
C1064      C1070   1.400       .  A
C1064      C1065   1.414       .  A
C1065      C1067   1.404       .  A
C1065      C1066   1.406       .  A
C1066      H1073   1.084       .  S
C1067      C1068   1.401       .  A
C1067      H1074   1.084       .  S
C1068      C1069   1.406       .  A
C1068      H1075   1.083       .  S
C1069      C1070   1.404       .  A
C1070      H1076   1.084       .  S
C1077      C1078   1.404       .  A
C1077      C1082   1.405       .  A
C1078      C1079   1.394       .  A
C1078      H1087   1.083       .  S
C1079      C1080   1.400       .  A
C1079      H1088   1.084       .  S
C1080      C1086   1.400       .  A
C1080      C1081   1.414       .  A
C1081      C1083   1.402       .  A
C1081      C1082   1.403       .  A
C1082      H1089   1.084       .  S
C1083      C1084   1.398       .  A
C1083      H1090   1.084       .  S
C1084      C1085   1.406       .  A
C1084      H1091   1.083       .  S
C1085      C1086   1.404       .  A
C1086      H1092   1.084       .  S
C1093      C1094   1.405       .  A
C1093      C1098   1.406       .  A
C1094      C1095   1.399       .  A
C1094      H1103   1.083       .  S
C1095      C1096   1.403       .  A
C1095      H1104   1.084       .  S
C1096      C1102   1.404       .  A
C1096      C1097   1.414       .  A
C1097      C1099   1.403       .  A
C1097      C1098   1.403       .  A
C1098      H1105   1.084       .  S
C1099      C1100   1.398       .  A
C1099      H1106   1.084       .  S
C1100      C1101   1.404       .  A
C1100      H1107   1.083       .  S
C1101      C1102   1.408       .  A
C1102      H1108   1.084       .  S
C1109      C1110   1.408       .  A
C1109      C1114   1.405       .  A
C1110      C1111   1.400       .  A
C1110      H1119   1.083       .  S
C1111      C1112   1.402       .  A
C1111      H1120   1.084       .  S
C1112      C1118   1.409       .  A
C1112      C1113   1.415       .  A
C1113      C1115   1.399       .  A
C1113      C1114   1.405       .  A
C1114      H1121   1.084       .  S
C1115      C1116   1.395       .  A
C1115      H1122   1.083       .  S
C1116      C1117   1.406       .  A
C1116      H1123   1.082       .  S
C1117      C1118   1.408       .  A
C1118      H1124   1.084       .  S
C1125      C1126   1.404       .  A
C1125      C1130   1.406       .  A
C1126      C1127   1.397       .  A
C1126      H1135   1.083       .  S
C1127      C1128   1.403       .  A
C1127      H1136   1.084       .  S
C1128      C1134   1.401       .  A
C1128      C1129   1.414       .  A
C1129      C1131   1.403       .  A
C1129      C1130   1.402       .  A
C1130      H1137   1.085       .  S
C1131      C1132   1.397       .  A
C1131      H1138   1.084       .  S
C1132      C1133   1.404       .  A
C1132      H1139   1.083       .  S
C1133      C1134   1.407       .  A
C1134      H1140   1.084       .  S
C1141      C1142   1.405       .  A
C1141      C1146   1.407       .  A
C1142      C1143   1.403       .  A
C1142      H1151   1.083       .  S
C1143      C1144   1.405       .  A
C1143      H1152   1.083       .  S
C1144      C1150   1.410       .  A
C1144      C1145   1.414       .  A
C1145      C1147   1.400       .  A
C1145      C1146   1.403       .  A
C1146      H1153   1.085       .  S
C1147      C1148   1.395       .  A
C1147      H1154   1.084       .  S
C1148      C1149   1.407       .  A
C1148      H1155   1.083       .  S
C1149      C1150   1.409       .  A
C1150      H1156   1.084       .  S
C1157      C1158   1.405       .  A
C1157      C1162   1.408       .  A
C1158      C1159   1.397       .  A
C1158      H1167   1.083       .  S
C1159      C1160   1.403       .  A
C1159      H1168   1.084       .  S
C1160      C1166   1.403       .  A
C1160      C1161   1.413       .  A
C1161      C1163   1.403       .  A
C1161      C1162   1.403       .  A
C1162      H1169   1.085       .  S
C1163      C1164   1.398       .  A
C1163      H1170   1.083       .  S
C1164      C1165   1.405       .  A
C1164      H1171   1.083       .  S
C1165      C1166   1.408       .  A
C1166      H1172   1.085       .  S
C1173      C1174   1.404       .  A
C1173      C1178   1.406       .  A
C1174      C1175   1.393       .  A
C1174      H1183   1.083       .  S
C1175      C1176   1.399       .  A
C1175      H1184   1.084       .  S
C1176      C1182   1.400       .  A
C1176      C1177   1.415       .  A
C1177      C1179   1.403       .  A
C1177      C1178   1.407       .  A
C1178      H1185   1.084       .  S
C1179      C1180   1.400       .  A
C1179      H1186   1.084       .  S
C1180      C1181   1.406       .  A
C1180      H1187   1.083       .  S
C1181      C1182   1.402       .  A
C1182      H1188   1.085       .  S
C1189      C1190   1.404       .  A
C1189      C1194   1.407       .  A
C1190      C1191   1.391       .  A
C1190      H1199   1.083   1_556  S
C1191      C1192   1.399       .  A
C1191      H1200   1.084   1_556  S
C1192      C1198   1.398       .  A
C1192      C1193   1.414       .  A
C1193      C1195   1.405       .  A
C1193      C1194   1.408       .  A
C1194      H1201   1.084       .  S
C1195      C1196   1.403       .  A
C1195      H1202   1.083       .  S
C1196      C1197   1.405       .  A
C1196      H1203   1.083       .  S
C1197      C1198   1.404       .  A
C1198      H1204   1.085   1_556  S
C1205      C1206   1.405       .  A
C1205      C1210   1.407       .  A
C1206      C1207   1.402       .  A
C1206      H1215   1.083       .  S
C1207      C1208   1.405       .  A
C1207      H1216   1.083       .  S
C1208      C1214   1.411       .  A
C1208      C1209   1.413       .  A
C1209      C1211   1.401       .  A
C1209      C1210   1.405       .  A
C1210      H1217   1.084       .  S
C1211      C1212   1.396       .  A
C1211      H1218   1.084       .  S
C1212      C1213   1.407       .  A
C1212      H1219   1.083       .  S
C1213      C1214   1.410       .  A
C1214      H1220   1.084       .  S
C1221      C1222   1.405       .  A
C1221      C1226   1.409       .  A
C1222      C1223   1.401       .  A
C1222      H1231   1.083       .  S
C1223      C1224   1.405       .  A
C1223      H1232   1.084       .  S
C1224      C1230   1.406       .  A
C1224      C1225   1.412       .  A
C1225      C1227   1.404       .  A
C1225      C1226   1.405       .  A
C1226      H1233   1.084       .  S
C1227      C1228   1.400       .  A
C1227      H1234   1.084       .  S
C1228      C1229   1.404       .  A
C1228      H1235   1.083       .  S
C1229      C1230   1.410       .  A
C1230      H1236   1.084       .  S
C1237      C1238   1.407       .  A
C1237      C1242   1.405       .  A
C1238      C1239   1.397       .  A
C1238      H1247   1.083       .  S
C1239      C1240   1.401       .  A
C1239      H1248   1.084       .  S
C1240      C1246   1.403       .  A
C1240      C1241   1.415       .  A
C1241      C1243   1.401       .  A
C1241      C1242   1.404       .  A
C1242      H1249   1.085   1_556  S
C1243      C1244   1.396       .  A
C1243      H1250   1.084   1_556  S
C1244      C1245   1.406       .  A
C1244      H1251   1.083   1_556  S
C1245      C1246   1.405       .  A
C1246      H1252   1.085       .  S
C1253      C1254   1.406       .  A
C1253      C1258   1.409       .  A
C1254      C1255   1.399       .  A
C1254      H1263   1.083       .  S
C1255      C1256   1.404       .  A
C1255      H1264   1.084       .  S
C1256      C1262   1.404       .  A
C1256      C1257   1.414       .  A
C1257      C1259   1.404       .  A
C1257      C1258   1.406       .  A
C1258      H1265   1.084       .  S
C1259      C1260   1.400       .  A
C1259      H1266   1.084       .  S
C1260      C1261   1.406       .  A
C1260      H1267   1.083       .  S
C1261      C1262   1.409       .  A
C1262      H1268   1.084       .  S
C1269      C1270   1.404       .  A
C1269      C1274   1.407       .  A
C1270      C1271   1.394       .  A
C1270      H1279   1.083       .  S
C1271      C1272   1.401       .  A
C1271      H1280   1.084       .  S
C1272      C1278   1.396       .  A
C1272      C1273   1.413       .  A
C1273      C1275   1.405       .  A
C1273      C1274   1.400       .  A
C1274      H1281   1.085       .  S
C1275      C1276   1.398       .  A
C1275      H1282   1.084       .  S
C1276      C1277   1.401       .  A
C1276      H1283   1.083       .  S
C1277      C1278   1.402       .  A
C1278      H1284   1.085       .  S
C1285      C1286   1.408       .  A
C1285      C1290   1.409       .  A
C1286      C1287   1.395       .  A
C1286      H1295   1.083       .  S
C1287      C1288   1.399       .  A
C1287      H1296   1.084       .  S
C1288      C1294   1.404       .  A
C1288      C1289   1.414       .  A
C1289      C1291   1.404       .  A
C1289      C1290   1.411       .  A
C1290      H1297   1.084       .  S
C1291      C1292   1.402       .  A
C1291      H1298   1.083       .  S
C1292      C1293   1.406       .  A
C1292      H1299   1.083       .  S
C1293      C1294   1.405       .  A
C1294      H1300   1.082       .  S
C1301      C1302   1.405       .  A
C1301      C1306   1.409       .  A
C1302      C1303   1.399       .  A
C1302      H1311   1.083       .  S
C1303      C1304   1.403       .  A
C1303      H1312   1.084       .  S
C1304      C1310   1.405       .  A
C1304      C1305   1.413       .  A
C1305      C1307   1.404       .  A
C1305      C1306   1.406       .  A
C1306      H1313   1.084       .  S
C1307      C1308   1.399       .  A
C1307      H1314   1.084       .  S
C1308      C1309   1.405       .  A
C1308      H1315   1.083       .  S
C1309      C1310   1.407       .  A
C1310      H1316   1.084       .  S
C1317      C1318   1.406       .  A
C1317      C1322   1.406       .  A
C1318      C1319   1.397       .  A
C1318      H1327   1.084       .  S
C1319      C1320   1.403       .  A
C1319      H1328   1.084       .  S
C1320      C1326   1.404       .  A
C1320      C1321   1.414       .  A
C1321      C1323   1.403       .  A
C1321      C1322   1.404       .  A
C1322      H1329   1.085       .  S
C1323      C1324   1.398       .  A
C1323      H1330   1.084       .  S
C1324      C1325   1.404       .  A
C1324      H1331   1.083       .  S
C1325      C1326   1.408       .  A
C1326      H1332   1.085       .  S
C1333      C1334   1.403       .  A
C1333      C1338   1.405       .  A
C1334      C1335   1.394       .  A
C1334      H1343   1.083       .  S
C1335      C1336   1.401       .  A
C1335      H1344   1.084       .  S
C1336      C1342   1.399       .  A
C1336      C1337   1.414       .  A
C1337      C1339   1.403       .  A
C1337      C1338   1.405       .  A
C1338      H1345   1.084       .  S
C1339      C1340   1.400       .  A
C1339      H1346   1.084       .  S
C1340      C1341   1.405       .  A
C1340      H1347   1.083       .  S
C1341      C1342   1.405       .  A
C1342      H1348   1.084       .  S
C1349      C1350   1.404       .  A
C1349      C1354   1.406       .  A
C1350      C1351   1.397       .  A
C1350      H1359   1.083       .  S
C1351      C1352   1.403       .  A
C1351      H1360   1.084       .  S
C1352      C1358   1.402       .  A
C1352      C1353   1.413       .  A
C1353      C1355   1.403       .  A
C1353      C1354   1.401       .  A
C1354      H1361   1.083       .  S
C1355      C1356   1.397       .  A
C1355      H1362   1.083       .  S
C1356      C1357   1.404       .  A
C1356      H1363   1.083       .  S
C1357      C1358   1.406       .  A
C1358      H1364   1.084       .  S
C1365      C1366   1.406       .  A
C1365      C1370   1.406       .  A
C1366      C1367   1.395       .  A
C1366      H1375   1.083       .  S
C1367      C1368   1.399   1_655  A
C1367      H1376   1.084       .  S
C1368      C1374   1.402       .  A
C1368      C1369   1.415       .  A
C1369      C1371   1.402       .  A
C1369      C1370   1.405   1_455  A
C1370      H1377   1.084       .  S
C1371      C1372   1.397       .  A
C1371      H1378   1.084       .  S
C1372      C1373   1.406       .  A
C1372      H1379   1.084       .  S
C1373      C1374   1.401       .  A
C1374      H1380   1.085       .  S
C1381      C1382   1.405       .  A
C1381      C1386   1.405       .  A
C1382      C1383   1.400       .  A
C1382      H1391   1.083   1_556  S
C1383      C1384   1.404       .  A
C1383      H1392   1.083       .  S
C1384      C1390   1.406       .  A
C1384      C1385   1.414       .  A
C1385      C1387   1.400       .  A
C1385      C1386   1.400       .  A
C1386      H1393   1.084       .  S
C1387      C1388   1.394       .  A
C1387      H1394   1.084       .  S
C1388      C1389   1.406       .  A
C1388      H1395   1.083       .  S
C1389      C1390   1.407       .  A
C1390      H1396   1.084       .  S
C1397      C1398   1.405       .  A
C1397      C1402   1.410       .  A
C1398      C1399   1.389       .  A
C1398      H1407   1.083   1_655  S
C1399      C1400   1.397       .  A
C1399      H1408   1.084       .  S
C1400      C1406   1.394       .  A
C1400      C1401   1.414       .  A
C1401      C1403   1.408       .  A
C1401      C1402   1.410       .  A
C1402      H1409   1.084       .  S
C1403      C1404   1.406       .  A
C1403      H1410   1.083       .  S
C1404      C1405   1.404       .  A
C1404      H1411   1.083       .  S
C1405      C1406   1.401       .  A
C1406      H1412   1.086   1_554  S
C1413      C1414   1.404       .  A
C1413      C1418   1.406       .  A
C1414      C1415   1.398       .  A
C1414      H1423   1.083       .  S
C1415      C1416   1.403       .  A
C1415      H1424   1.084       .  S
C1416      C1422   1.404       .  A
C1416      C1417   1.413       .  A
C1417      C1419   1.403       .  A
C1417      C1418   1.403       .  A
C1418      H1425   1.084       .  S
C1419      C1420   1.398       .  A
C1419      H1426   1.084       .  S
C1420      C1421   1.403       .  A
C1420      H1427   1.083       .  S
C1421      C1422   1.406       .  A
C1422      H1428   1.084       .  S
C1429      C1430   1.403       .  A
C1429      C1434   1.402   1_556  A
C1430      C1431   1.400       .  A
C1430      H1439   1.083       .  S
C1431      C1432   1.405       .  A
C1431      H1440   1.084       .  S
C1432      C1438   1.404       .  A
C1432      C1433   1.414   1_556  A
C1433      C1435   1.400       .  A
C1433      C1434   1.397       .  A
C1434      H1441   1.085       .  S
C1435      C1436   1.392       .  A
C1435      H1442   1.084       .  S
C1436      C1437   1.404       .  A
C1436      H1443   1.083       .  S
C1437      C1438   1.407   1_554  A
C1438      H1444   1.084       .  S
C1445      C1446   1.408   1_655  A
C1445      C1450   1.411       .  A
C1446      C1447   1.396       .  A
C1446      H1455   1.083       .  S
C1447      C1448   1.399       .  A
C1447      H1456   1.083       .  S
C1448      C1454   1.408       .  A
C1448      C1449   1.414   1_455  A
C1449      C1451   1.404       .  A
C1449      C1450   1.415       .  A
C1450      H1457   1.084       .  S
C1451      C1452   1.403   1_655  A
C1451      H1458   1.083       .  S
C1452      C1453   1.408       .  A
C1452      H1459   1.083   1_455  S
C1453      C1454   1.406       .  A
C1454      H1460   1.084       .  S
C1461      C1462   1.403       .  A
C1461      C1466   1.404       .  A
C1462      C1463   1.400       .  A
C1462      H1471   1.083       .  S
C1463      C1464   1.405       .  A
C1463      H1472   1.084       .  S
C1464      C1470   1.404   1_655  A
C1464      C1465   1.414       .  A
C1465      C1467   1.401   1_655  A
C1465      C1466   1.399       .  A
C1466      H1473   1.085       .  S
C1467      C1468   1.395       .  A
C1467      H1474   1.084   1_455  S
C1468      C1469   1.403       .  A
C1468      H1475   1.083       .  S
C1469      C1470   1.408       .  A
C1470      H1476   1.084       .  S
C1477      C1478   1.404       .  A
C1477      C1482   1.409       .  A
C1478      C1479   1.401       .  A
C1478      H1487   1.083       .  S
C1479      C1480   1.405       .  A
C1479      H1488   1.084       .  S
C1480      C1486   1.406       .  A
C1480      C1481   1.412       .  A
C1481      C1483   1.404       .  A
C1481      C1482   1.404       .  A
C1482      H1489   1.084       .  S
C1483      C1484   1.399       .  A
C1483      H1490   1.084       .  S
C1484      C1485   1.403       .  A
C1484      H1491   1.083       .  S
C1485      C1486   1.410       .  A
C1486      H1492   1.084       .  S
C1493      C1494   1.408       .  A
C1493      C1498   1.408   1_655  A
C1494      C1495   1.402   1_655  A
C1494      H1503   1.083       .  S
C1495      C1496   1.402       .  A
C1495      H1504   1.082       .  S
C1496      C1502   1.415       .  A
C1496      C1497   1.414       .  A
C1497      C1499   1.400       .  A
C1497      C1498   1.411       .  A
C1498      H1505   1.084       .  S
C1499      C1500   1.399       .  A
C1499      H1506   1.084       .  S
C1500      C1501   1.408       .  A
C1500      H1507   1.083       .  S
C1501      C1502   1.411       .  A
C1502      H1508   1.084       .  S
C1509      C1510   1.403       .  A
C1509      C1514   1.406       .  A
C1510      C1511   1.398       .  A
C1510      H1519   1.083       .  S
C1511      C1512   1.404       .  A
C1511      H1520   1.084       .  S
C1512      C1518   1.401       .  A
C1512      C1513   1.413       .  A
C1513      C1515   1.402       .  A
C1513      C1514   1.396       .  A
C1514      H1521   1.085       .  S
C1515      C1516   1.395   1_545  A
C1515      H1522   1.084       .  S
C1516      C1517   1.404       .  A
C1516      H1523   1.083       .  S
C1517      C1518   1.406   1_565  A
C1518      H1524   1.084       .  S
C1525      C1526   1.406       .  A
C1525      C1530   1.403       .  A
C1526      C1527   1.400       .  A
C1526      H1535   1.083       .  S
C1527      C1528   1.404       .  A
C1527      H1536   1.083       .  S
C1528      C1534   1.407       .  A
C1528      C1529   1.414       .  A
C1529      C1531   1.399       .  A
C1529      C1530   1.400       .  A
C1530      H1537   1.084       .  S
C1531      C1532   1.393       .  A
C1531      H1538   1.084       .  S
C1532      C1533   1.406       .  A
C1532      H1539   1.083       .  S
C1533      C1534   1.408       .  A
C1534      H1540   1.084       .  S
C1541      C1542   1.407       .  A
C1541      C1546   1.408       .  A
C1542      C1543   1.398       .  A
C1542      H1551   1.083       .  S
C1543      C1544   1.402   1_565  A
C1543      H1552   1.084       .  S
C1544      C1550   1.407       .  A
C1544      C1545   1.414       .  A
C1545      C1547   1.402       .  A
C1545      C1546   1.408   1_545  A
C1546      H1553   1.084       .  S
C1547      C1548   1.400       .  A
C1547      H1554   1.084       .  S
C1548      C1549   1.407       .  A
C1548      H1555   1.083       .  S
C1549      C1550   1.407       .  A
C1550      H1556   1.084       .  S
C1557      C1558   1.404   1_556  A
C1557      C1562   1.403       .  A
C1558      C1559   1.393       .  A
C1558      H1567   1.084       .  S
C1559      C1560   1.399   1_554  A
C1559      H1568   1.084       .  S
C1560      C1566   1.400       .  A
C1560      C1561   1.416       .  A
C1561      C1563   1.402       .  A
C1561      C1562   1.404       .  A
C1562      H1569   1.084       .  S
C1563      C1564   1.397       .  A
C1563      H1570   1.084       .  S
C1564      C1565   1.406       .  A
C1564      H1571   1.083       .  S
C1565      C1566   1.402       .  A
C1566      H1572   1.085   1_556  S
C1573      C1574   1.406       .  A
C1573      C1578   1.404       .  A
C1574      C1575   1.400       .  A
C1574      H1583   1.083       .  S
C1575      C1576   1.404       .  A
C1575      H1584   1.084       .  S
C1576      C1582   1.407       .  A
C1576      C1577   1.413       .  A
C1577      C1579   1.400       .  A
C1577      C1578   1.400       .  A
C1578      H1585   1.084       .  S
C1579      C1580   1.394       .  A
C1579      H1586   1.084       .  S
C1580      C1581   1.405       .  A
C1580      H1587   1.083       .  S
C1581      C1582   1.408       .  A
C1582      H1588   1.084       .  S
C1589      C1590   1.404       .  A
C1589      C1594   1.409       .  A
C1590      C1591   1.401       .  A
C1590      H1599   1.083       .  S
C1591      C1592   1.406       .  A
C1591      H1600   1.084       .  S
C1592      C1598   1.404       .  A
C1592      C1593   1.411       .  A
C1593      C1595   1.404       .  A
C1593      C1594   1.401       .  A
C1594      H1601   1.084       .  S
C1595      C1596   1.398       .  A
C1595      H1602   1.084       .  S
C1596      C1597   1.403       .  A
C1596      H1603   1.083       .  S
C1597      C1598   1.410       .  A
C1598      H1604   1.084       .  S
C1605      C1606   1.408       .  A
C1605      C1610   1.413       .  A
C1606      C1607   1.393       .  A
C1606      H1615   1.083       .  S
C1607      C1608   1.397       .  A
C1607      H1616   1.083       .  S
C1608      C1614   1.404       .  A
C1608      C1609   1.414       .  A
C1609      C1611   1.407       .  A
C1609      C1610   1.417       .  A
C1610      H1617   1.084       .  S
C1611      C1612   1.406       .  A
C1611      H1618   1.083       .  S
C1612      C1613   1.407       .  A
C1612      H1619   1.083       .  S
C1613      C1614   1.404       .  A
C1614      H1620   1.085       .  S
