geometry optimzed in LAMMPS
_audit_creation_date              2020-12-01 
_audit_creation_method            'lammps2cif' 
_symmetry_space_group_name_H-M    'P1' 
_symmetry_Int_Tables_number       1 
_symmetry_cell_setting            triclinic 
loop_ 
_symmetry_equiv_pos_as_xyz 
  x,y,z 
_cell_length_a                    31.98648061 
_cell_length_b                    31.958485639416065 
_cell_length_c                    83.85064798993128 
_cell_angle_alpha                 89.74708510390018 
_cell_angle_beta                  90.23557299285842 
_cell_angle_gamma                 120.58258775165046 
loop_ 
_atom_site_label 
_atom_site_type_symbol 
_atom_site_fract_x 
_atom_site_fract_y 
_atom_site_fract_z 
_atom_site_charge 
O1          O  0.07804901  0.18294516  0.26594358    -0.53000
C2          C  0.97249465  0.12872788  0.30017062     0.79600
O3          O  0.11354243  0.13535907  0.30873094    -0.54200
C4          C  0.12197878  0.19399434  0.26486614     0.79600
C5          C  0.10214653  0.26312685  0.31290084     0.82000
Cd6        Cd  0.07474107  0.17679129  0.29517053     1.37500
O7          O  0.99077742  0.14907836  0.28694510    -0.53000
O8          O  0.08406824  0.25680810  0.29907466    -0.51800
C9          C  0.08503373  0.09517371  0.30197874     0.81900
O10         O  0.11134510  0.23144410  0.31815830    -0.54200
O11         O  0.00134166  0.13247571  0.31115809    -0.52700
O12         O  0.14575490  0.20248692  0.27771856    -0.52700
O13         O  0.05250298  0.09339728  0.29297226    -0.51800
O14         O  0.14618269  0.45841740  0.38633028    -0.53000
C15         C  0.25075181  0.51435114  0.35140105     0.79600
O16         O  0.11120515  0.40823549  0.33455113    -0.54200
C17         C  0.10213907  0.44691023  0.38752694     0.79600
C18         C  0.13695063  0.54515512  0.35016660     0.82000
Cd19       Cd  0.14874926  0.46448423  0.35710590     1.37500
O20         O  0.23367519  0.49457182  0.36479745    -0.53000
O21         O  0.16893595  0.54727194  0.35952477    -0.51800
C22         C  0.12210204  0.37770311  0.33975008     0.81900
O23         O  0.10946654  0.50496888  0.34324551    -0.54200
O24         O  0.22087343  0.50921191  0.34059646    -0.52700
O25         O  0.07803938  0.43820587  0.37473654    -0.52700
O26         O  0.14161442  0.38532858  0.35338034    -0.51800
O27         O  0.16006746  0.69780892  0.36363379    -0.53000
C28         C  0.24725176  0.83042410  0.38579098     0.79600
O29         O  0.29682971  0.82309998  0.34193776    -0.54200
C30         C  0.16265976  0.68001464  0.35044648     0.79600
C31         C  0.15631401  0.80858730  0.33784206     0.82000
Cd32       Cd  0.21630260  0.78257277  0.35556315     1.37500
O33         O  0.21431579  0.78612066  0.38480656    -0.53000
O34         O  0.14462056  0.79008512  0.35162339    -0.51800
C35         C  0.30951527  0.79595240  0.34892177     0.81900
O36         O  0.19745945  0.81854730  0.33259463    -0.54200
O37         O  0.26192952  0.85414448  0.37289670    -0.52700
O38         O  0.18801389  0.70940142  0.33956225    -0.52700
O39         O  0.27914680  0.76333719  0.35809307    -0.51800
O40         O  0.00642218  0.85680345  0.26467397    -0.53000
C41         C  0.05814883  0.96024376  0.30028612     0.79600
O42         O  0.92239228  0.81876071  0.30721300    -0.54200
C43         C  0.97305710  0.81273406  0.26340024     0.79600
C44         C  0.06206463  0.82987330  0.31115826     0.82000
Cd45       Cd  0.00341358  0.85846167  0.29392138     1.37500
O46         O  0.06070854  0.94381332  0.28681564    -0.53000
O47         O  0.07428367  0.84952539  0.29754518    -0.51800
C48         C  0.91063913  0.84662080  0.30021030     0.81900
O49         O  0.02086163  0.81979179  0.31639982    -0.54200
O50         O  0.03230137  0.92980423  0.31086063    -0.52700
O51         O  0.95765832  0.78825334  0.27613183    -0.52700
O52         O  0.94169274  0.87919673  0.29118234    -0.51800
O53         O  0.43978611  0.77580415  0.36361575    -0.53000
C54         C  0.48567410  0.68975337  0.38651154     0.79600
O55         O  0.42498019  0.63837614  0.34275456    -0.54200
C56         C  0.41926154  0.77242059  0.35032310     0.79600
C57         C  0.55311599  0.77698610  0.33807654     0.82000
Cd58       Cd  0.46715463  0.71898548  0.35620010     1.37500
O59         O  0.47461055  0.72250620  0.38543835    -0.53000
O60         O  0.54731868  0.79024608  0.35166440    -0.51800
C61         C  0.38552411  0.62544368  0.35004819     0.81900
O62         O  0.52091970  0.73529830  0.33327019    -0.54200
O63         O  0.49358453  0.67447324  0.37364867    -0.52700
O64         O  0.42275524  0.74643244  0.33971642    -0.52700
O65         O  0.38441022  0.65566287  0.35940182    -0.51800
O66         O  0.74972119  0.92505371  0.26358103    -0.53000
C67         C  0.80218181  0.87229099  0.29859585     0.79600
O68         O  0.79694953  0.00639935  0.30695833    -0.54200
C69         C  0.73926268  0.95824181  0.26255910     0.79600
C70         C  0.66837699  0.86860156  0.31051142     0.82000
Cd71       Cd  0.75533034  0.92685066  0.29286399     1.37500
O72         O  0.78213077  0.86966666  0.28526701    -0.53000
O73         O  0.67458444  0.85579267  0.29690197    -0.51800
C74         C  0.83696735  0.01945075  0.30003194     0.81900
O75         O  0.70059404  0.90997894  0.31553026    -0.54200
O76         O  0.79868766  0.89804186  0.30929003    -0.52700
O77         O  0.73089930  0.97310067  0.27543083    -0.52700
O78         O  0.83853113  0.98980295  0.29052411    -0.51800
O79         O  0.14079571  0.11817378  0.22043858    -0.53000
C80         C  0.08490687  0.01502953  0.18520467     0.79600
O81         O  0.09709030  0.15884850  0.17768102    -0.54200
C82         C  0.15333421  0.16249330  0.22182084     0.79600
C83         C  0.22192909  0.14354589  0.17350373     0.82000
Cd84       Cd  0.13563729  0.11704621  0.19115714     1.37500
O85         O  0.10498273  0.03167989  0.19859123    -0.53000
O86         O  0.21460805  0.12386329  0.18710600    -0.51800
C87         C  0.05633850  0.13109694  0.18421774     0.81900
O88         O  0.19137293  0.15460764  0.16849451    -0.54200
O89         O  0.09011481  0.04530480  0.17452532    -0.52700
O90         O  0.16293752  0.18721338  0.20913241    -0.52700
O91         O  0.05298885  0.09775120  0.19319089    -0.51800
O92         O  0.41253706  0.18785783  0.09829258    -0.53000
C93         C  0.46843106  0.29407328  0.13242876     0.79600
O94         O  0.36726544  0.15485778  0.15078637    -0.54200
C95         C  0.40175562  0.14397117  0.09720013     0.79600
C96         C  0.50271926  0.18204111  0.13390568     0.82000
Cd97       Cd  0.42049999  0.19166404  0.12747994     1.37500
O98         O  0.44739536  0.27571910  0.11929905    -0.53000
O99         O  0.50380265  0.21388157  0.12469482    -0.51800
C100        C  0.33519367  0.16390977  0.14586632     0.81900
O101        O  0.46296438  0.15378665  0.14092240    -0.54200
O102        O  0.46546986  0.26524624  0.14331436    -0.52700
O103        O  0.39424151  0.12040321  0.11006373    -0.52700
O104        O  0.34061289  0.18201070  0.13206730    -0.51800
O105        O  0.82336838  0.82995873  0.19767306    -0.53000
C106        C  0.90783817  0.78231400  0.22052549     0.79600
O107        O  0.86077994  0.74593110  0.16748745    -0.54200
C108        C  0.82688111  0.85037341  0.18434258     0.79600
C109        C  0.97264694  0.88109352  0.18379812     0.82000
Cd110      Cd  0.87858594  0.80070563  0.19021714     1.37500
O111        O  0.87544330  0.79384294  0.21946413    -0.53000
O112        O  0.94295788  0.88306852  0.19316939    -0.51800
C113        C  0.81918164  0.71419504  0.17249671     0.81900
O114        O  0.95889670  0.84131494  0.17658328    -0.54200
O115        O  0.92274163  0.77394169  0.20766536    -0.52700
O116        O  0.85207087  0.84585533  0.17367732    -0.52700
O117        O  0.80654461  0.72075207  0.18608672    -0.51800
O118        O  0.72718916  0.48633695  0.11890386    -0.53000
C119        C  0.64085713  0.53217952  0.09662823     0.79600
O120        O  0.58985126  0.46940228  0.14041167    -0.54200
C121        C  0.72468139  0.46590944  0.13214940     0.79600
C122        C  0.72739573  0.59882145  0.14501325     0.82000
Cd123      Cd  0.67010212  0.51290720  0.12678267     1.37500
O124        O  0.67419420  0.52196432  0.09763588    -0.53000
O125        O  0.74062817  0.59346150  0.13136623    -0.51800
C126        C  0.57725023  0.43022127  0.13297177     0.81900
O127        O  0.68601102  0.56611894  0.14986702    -0.54200
O128        O  0.62474313  0.53879342  0.10953163    -0.52700
O129        O  0.69903288  0.46910068  0.14294578    -0.52700
O130        O  0.60738210  0.42990369  0.12339009    -0.51800
O131        O  0.65576570  0.20735078  0.11972584    -0.53000
C132        C  0.78766813  0.29476273  0.09706031     0.79600
O133        O  0.77852546  0.34597708  0.14080782    -0.54200
C134        C  0.63825360  0.20997346  0.13296591     0.79600
C135        C  0.76947722  0.20779705  0.14529313     0.82000
Cd136      Cd  0.74046258  0.26515463  0.12739619     1.37500
O137        O  0.74369714  0.26116111  0.09821301    -0.53000
O138        O  0.74986281  0.19471842  0.13170887    -0.51800
C139        C  0.75139687  0.35785475  0.13339350     0.81900
O140        O  0.77894980  0.24908735  0.15027628    -0.54200
O141        O  0.81141776  0.31091584  0.10988354    -0.52700
O142        O  0.66780666  0.23597729  0.14370935    -0.52700
O143        O  0.72005981  0.32707714  0.12399495    -0.51800
O144        O  0.81703833  0.05790093  0.21888073    -0.53000
C145        C  0.92277388  0.10855218  0.18442925     0.79600
O146        O  0.77937138  0.97527046  0.17592169    -0.54200
C147        C  0.77277080  0.02496493  0.21990911     0.79600
C148        C  0.79349785  0.11549955  0.17210150     0.82000
Cd149      Cd  0.82028774  0.05570629  0.18963353     1.37500
O150        O  0.90518395  0.11146038  0.19761473    -0.53000
O151        O  0.81248758  0.12740098  0.18580799    -0.51800
C152        C  0.80587000  0.96196233  0.18299770     0.81900
O153        O  0.78377341  0.07443495  0.16681932    -0.54200
O154        O  0.89323734  0.08350296  0.17354428    -0.52700
O155        O  0.74898106  0.01019833  0.20704018    -0.52700
O156        O  0.83837440  0.99197255  0.19226741    -0.51800
O157        O  0.08331560  0.52332286  0.43159617    -0.53000
C158        C  0.14049358  0.62951889  0.46560473     0.79600
O159        O  0.03721976  0.49125096  0.48406799    -0.54200
C160        C  0.07174228  0.47919775  0.43053227     0.79600
C161        C  0.17212846  0.51556685  0.46723574     0.82000
Cd162      Cd  0.09094096  0.52700179  0.46079330     1.37500
O163        O  0.11957026  0.61122904  0.45245552    -0.53000
O164        O  0.17397701  0.54811283  0.45820085    -0.51800
C165        C  0.00544004  0.50046773  0.47895202     0.81900
O166        O  0.13207788  0.48747556  0.47412380    -0.54200
O167        O  0.13656734  0.60059884  0.47660350    -0.52700
O168        O  0.06369778  0.45556718  0.44340586    -0.52700
O169        O  0.01132888  0.51837140  0.46510565    -0.51800
O170        O  0.81127848  0.45524568  0.55307130    -0.53000
C171        C  0.75490403  0.35010102  0.51822597     0.79600
O172        O  0.76388048  0.49145060  0.51016225    -0.54200
C173        C  0.82260533  0.49930006  0.55419405     0.79600
C174        C  0.89125719  0.47968716  0.50619119     0.82000
Cd175      Cd  0.80473774  0.45228599  0.52383749     1.37500
O176        O  0.77544023  0.36733314  0.53151260    -0.53000
O177        O  0.88427308  0.46046926  0.51986213    -0.51800
C178        C  0.72397258  0.46416704  0.51725378     0.81900
O179        O  0.86013038  0.48982511  0.50106529    -0.54200
O180        O  0.75933837  0.37990195  0.50747695    -0.52700
O181        O  0.83111568  0.52321719  0.54136382    -0.52700
O182        O  0.72207907  0.43220463  0.52659339    -0.51800
O183        O  0.41100846  0.59153503  0.43076624    -0.53000
C184        C  0.30680371  0.54123558  0.46591952     0.79600
O185        O  0.44730901  0.57921094  0.48289928    -0.54200
C186        C  0.45501315  0.62496395  0.42947833     0.79600
C187        C  0.42164507  0.68874320  0.46607158     0.82000
Cd188      Cd  0.40894945  0.59537911  0.46001791     1.37500
O189        O  0.32378895  0.53769161  0.45268903    -0.53000
O190        O  0.38913960  0.65781894  0.45700331    -0.51800
C191        C  0.43761197  0.53779119  0.47798861     0.81900
O192        O  0.44900897  0.67660918  0.47319185    -0.54200
O193        O  0.33681630  0.56765739  0.47649598    -0.52700
O194        O  0.47930497  0.64072562  0.44221985    -0.52700
O195        O  0.41808984  0.52468263  0.46438945    -0.51800
O196        O  0.57212076  0.44266315  0.53119687    -0.53000
C197        C  0.43959789  0.35615361  0.55362034     0.79600
O198        O  0.45039924  0.40429818  0.50036678    -0.54200
C199        C  0.58956125  0.43962625  0.51799428     0.79600
C200        C  0.47357778  0.29296175  0.51680195     0.82000
Cd201      Cd  0.48714757  0.38646380  0.52332357     1.37500
O202        O  0.48382710  0.38918135  0.55257082    -0.53000
O203        O  0.50577029  0.32310364  0.52612748    -0.51800
C204        C  0.46045234  0.44571180  0.50539540     0.74700
O205        O  0.44686474  0.30592788  0.50968628    -0.54200
O206        O  0.41583802  0.34112393  0.54075385    -0.52700
O207        O  0.55991154  0.41420693  0.50718954    -0.52700
O208        O  0.47952450  0.45816699  0.51907748    -0.51800
O209        O  0.40064985  0.81882510  0.45115800    -0.53000
C210        C  0.31364682  0.86357321  0.42846438     0.79600
O211        O  0.26439693  0.80456908  0.47273192    -0.54200
C212        C  0.39768170  0.79849401  0.46446282     0.79600
C213        C  0.40222205  0.93318166  0.47662074     0.82000
Cd214      Cd  0.34413396  0.84641180  0.45876910     1.37500
O215        O  0.34683259  0.85314393  0.42950071    -0.53000
O216        O  0.41542074  0.92701677  0.46307214    -0.51800
C217        C  0.25107712  0.76480141  0.46557458     0.81900
O218        O  0.36067832  0.90095271  0.48150636    -0.54200
O219        O  0.29844762  0.87149961  0.44133981    -0.52700
O220        O  0.37215750  0.80228726  0.47516899    -0.52700
O221        O  0.28066012  0.76341338  0.45600114    -0.51800
O222        O  0.54499527  0.12568388  0.55226848    -0.53000
C223        C  0.49666715  0.18260494  0.51760505     0.79600
O224        O  0.63055379  0.17575681  0.50977939    -0.54200
C225        C  0.57787053  0.11487313  0.55346710     0.79600
C226        C  0.49242706  0.04841936  0.50448614     0.82000
Cd227      Cd  0.54963293  0.13393329  0.52303830     1.37500
O228        O  0.49270491  0.16094228  0.53070419    -0.53000
O229        O  0.47868111  0.05364027  0.51806350    -0.51800
C230        C  0.64350339  0.21538582  0.51697297     0.81900
O231        O  0.53409529  0.08106926  0.49984369    -0.54200
O232        O  0.52290529  0.17978919  0.50694502    -0.52700
O233        O  0.59376543  0.10743287  0.54066079    -0.52700
O234        O  0.61318603  0.21677117  0.52619735    -0.51800
O235        O  0.08286383  0.59115613  0.93142812    -0.53000
C236        C  0.13657198  0.54051131  0.96648570     0.79600
O237        O  0.13193877  0.67601874  0.97393076    -0.54200
C238        C  0.07286903  0.62463043  0.93018197     0.79600
C239        C  0.00273097  0.53750765  0.97850385     0.82000
Cd240      Cd  0.08972134  0.59497434  0.96069018     1.37500
O241        O  0.11653784  0.53788121  0.95315553    -0.53000
O242        O  0.00847520  0.52469900  0.96483360    -0.51800
C243        C  0.17188199  0.68812522  0.96710163     0.81900
O244        O  0.03558935  0.57852250  0.98357641    -0.54200
O245        O  0.13285212  0.56605242  0.97721169    -0.52700
O246        O  0.06542609  0.64068074  0.94295568    -0.52700
O247        O  0.17323488  0.65725085  0.95813761    -0.51800
O248        O  0.77261713  0.44475282  0.03170493    -0.53000
C249        C  0.81877213  0.35889563  0.05407720     0.79600
O250        O  0.75739064  0.30800361  0.01017645    -0.54200
C251        C  0.75194659  0.44182822  0.01848292     0.79600
C252        C  0.88631353  0.44650177  0.00580536     0.82000
Cd253      Cd  0.80000507  0.38831362  0.02385309     1.37500
O254        O  0.80809912  0.39192578  0.05304335    -0.53000
O255        O  0.88033692  0.45959587  0.01939548    -0.51800
C256        C  0.71805488  0.29493677  0.01756774     0.81900
O257        O  0.85398991  0.40499146  0.00090458    -0.54200
O258        O  0.82608703  0.34324724  0.04119030    -0.52700
O259        O  0.75551244  0.41639543  0.00768344    -0.52700
O260        O  0.71720978  0.32490726  0.02710314    -0.51800
O261        O  0.41181529  0.85516869  0.93101352    -0.53000
C262        C  0.30702804  0.79889508  0.96587356     0.79600
O263        O  0.44828953  0.80776269  0.97389938    -0.54200
C264        C  0.45578316  0.86642183  0.92980397     0.79600
C265        C  0.43587433  0.93507426  0.97798793     0.82000
Cd266      Cd  0.40915116  0.84875550  0.96025384     1.37500
O267        O  0.32427104  0.81929712  0.95256442    -0.53000
O268        O  0.41656266  0.92800845  0.96433655    -0.51800
C269        C  0.42050806  0.76768692  0.96696200     0.81900
O270        O  0.44664073  0.90428536  0.98301895    -0.54200
O271        O  0.33679044  0.80340235  0.97663395    -0.52700
O272        O  0.47985433  0.87495443  0.94259417    -0.52700
O273        O  0.38843312  0.76585236  0.95771161    -0.51800
O274        O  0.56542238  0.16312858  0.03170156    -0.53000
C275        C  0.43321407  0.11353053  0.05409658     0.79600
O276        O  0.44152880  0.17488541  0.01042809    -0.54200
C277        C  0.58296818  0.18382681  0.01845371     0.79600
C278        C  0.45475395  0.04813302  0.00552664     0.82000
Cd279      Cd  0.48071003  0.13344007  0.02375588     1.37500
O280        O  0.47727792  0.12508054  0.05293988    -0.53000
O281        O  0.47369649  0.05456863  0.01921926    -0.51800
C282        C  0.46921510  0.21473689  0.01749834     0.81900
O283        O  0.44407388  0.07912284  0.00064377    -0.54200
O284        O  0.40949553  0.10580315  0.04126410    -0.52700
O285        O  0.55345400  0.17936050  0.00760775    -0.52700
O286        O  0.50124610  0.21628838  0.02670568    -0.51800
O287        O  0.34185679  0.52816596  0.93129271    -0.53000
C288        C  0.39382513  0.63260284  0.96612977     0.79600
O289        O  0.25883641  0.48937429  0.97420570    -0.54200
C290        C  0.30912242  0.48385836  0.93008161     0.79600
C291        C  0.39804236  0.50231369  0.97806684     0.82000
Cd292      Cd  0.33930075  0.53025240  0.96055358     1.37500
O293        O  0.39610721  0.61522460  0.95281977    -0.53000
O294        O  0.41027338  0.52144032  0.96438315    -0.51800
C295        C  0.24612669  0.51676520  0.96742160     0.81900
O296        O  0.35699820  0.49274422  0.98328129    -0.54200
O297        O  0.36837001  0.60288235  0.97692392    -0.52700
O298        O  0.29409117  0.45955873  0.94285553    -0.52700
O299        O  0.27641852  0.54962544  0.95829878    -0.51800
O300        O  0.49215163  0.36752646  0.03142248    -0.53000
C301        C  0.57736920  0.50056029  0.05364409     0.79600
O302        O  0.62925344  0.49191160  0.00995313    -0.54200
C303        C  0.49507762  0.34982211  0.01826244     0.79600
C304        C  0.49034568  0.47949698  0.00523224     0.82000
Cd305      Cd  0.54861483  0.45244041  0.02344351     1.37500
O306        O  0.54423797  0.45635494  0.05258093    -0.53000
O307        O  0.47753759  0.46053238  0.01891838    -0.51800
C308        C  0.64213250  0.46566021  0.01742994     0.81900
O309        O  0.53171022  0.48922399  0.00029169    -0.54200
O310        O  0.59341022  0.52408481  0.04077011    -0.52700
O311        O  0.52066328  0.37930389  0.00743522    -0.52700
O312        O  0.61196185  0.43412851  0.02692737    -0.51800
O313        O  0.14063536  0.05416523  0.71889774    -0.53000
C314        C  0.08519656  0.10423271  0.68432096     0.79600
O315        O  0.18704765  0.06751995  0.66667026    -0.54200
C316        C  0.15136833  0.02119684  0.72001694     0.79600
C317        C  0.05167299  0.95710463  0.68331930     0.82000
Cd318      Cd  0.13321960  0.05061853  0.68968478     1.37500
O319        O  0.10619931  0.10740383  0.69749195    -0.53000
O320        O  0.05037801  0.98726216  0.69265240    -0.51800
C321        C  0.21948015  0.10889598  0.67162924     0.81900
O322        O  0.09130465  0.97006527  0.67613833    -0.54200
O323        O  0.08830523  0.07840206  0.67356567    -0.52700
O324        O  0.15908002  0.00564843  0.70717818    -0.52700
O325        O  0.21367507  0.12174253  0.68528381    -0.51800
O326        O  0.44988848  0.20247852  0.61897015    -0.53000
C327        C  0.40618289  0.28997672  0.59636852     0.79600
O328        O  0.36822084  0.24178585  0.64954842    -0.54200
C329        C  0.46994245  0.20492921  0.63228246     0.79600
C330        C  0.50429357  0.35225913  0.63335199     0.82000
Cd331      Cd  0.42265112  0.25912210  0.62670348     1.37500
O332        O  0.41624656  0.25651391  0.59743764    -0.53000
O333        O  0.50587827  0.32186562  0.62421013    -0.51800
C334        C  0.33563528  0.20076877  0.64438599     0.81900
O335        O  0.46434846  0.33961004  0.64027179    -0.54200
O336        O  0.39830794  0.30531558  0.60922362    -0.52700
O337        O  0.46616964  0.23027208  0.64307035    -0.52700
O338        O  0.34161626  0.18837328  0.63067692    -0.51800
O339        O  0.74560387  0.51878402  0.59792049    -0.53000
C340        C  0.63932102  0.46270444  0.63241992     0.79600
O341        O  0.77975249  0.46995662  0.64079089    -0.54200
C342        C  0.78975921  0.53047913  0.59698354     0.79600
C343        C  0.76789420  0.59777732  0.64494660     0.82000
Cd344      Cd  0.74149063  0.51177209  0.62713113     1.37500
O345        O  0.65699737  0.48287246  0.61911426    -0.53000
O346        O  0.74930313  0.59112848  0.63118862    -0.51800
C347        C  0.75211994  0.43015631  0.63368381     0.81900
O348        O  0.77805206  0.56664093  0.65008045    -0.54200
O349        O  0.66869222  0.46705507  0.64330122    -0.52700
O350        O  0.81318408  0.53894937  0.60991250    -0.52700
O351        O  0.72038965  0.42875988  0.62436417    -0.51800
O352        O  0.89896809  0.82686272  0.69765244    -0.53000
C353        C  0.76721508  0.78089312  0.72002570     0.79600
O354        O  0.77535751  0.83942119  0.67621552    -0.54200
C355        C  0.91659244  0.84684213  0.68432157     0.79600
C356        C  0.78728208  0.71173281  0.67206739     0.82000
Cd357      Cd  0.81446854  0.79821296  0.68972112     1.37500
O358        O  0.81119126  0.79204302  0.71896769    -0.53000
O359        O  0.80538525  0.71819445  0.68589679    -0.51800
C360        C  0.80360948  0.87959826  0.68302014     0.81900
O361        O  0.77790151  0.74327568  0.66679207    -0.54200
O362        O  0.74345697  0.77229608  0.70716475    -0.52700
O363        O  0.88717883  0.84247402  0.67345242    -0.52700
O364        O  0.83614937  0.88149409  0.69205321    -0.51800
O365        O  0.67509334  0.19011989  0.59767551    -0.53000
C366        C  0.72590277  0.29508535  0.63257904     0.79600
O367        O  0.59142234  0.15290052  0.64045841    -0.54200
C368        C  0.64196719  0.14593802  0.59650404     0.79600
C369        C  0.73100494  0.16543245  0.64466600     0.82000
Cd370      Cd  0.67205787  0.19276952  0.62691187     1.37500
O371        O  0.72884851  0.27792213  0.61930493    -0.53000
O372        O  0.74342373  0.18471083  0.63100647    -0.51800
C373        C  0.57897114  0.18006778  0.63335825     0.81900
O374        O  0.68962255  0.15527502  0.64973462    -0.54200
O375        O  0.70015878  0.26518110  0.64328982    -0.52700
O376        O  0.62662591  0.12183475  0.60930710    -0.52700
O377        O  0.60940813  0.21225448  0.62408725    -0.51800
O378        O  0.82620574  0.03156628  0.69742553    -0.53000
C379        C  0.91285732  0.16383415  0.72017332     0.79600
O380        O  0.96363401  0.15621460  0.67627427    -0.54200
C381        C  0.82924494  0.01441281  0.68416071     0.79600
C382        C  0.82417273  0.14390995  0.67190807     0.82000
Cd383      Cd  0.88299372  0.11671331  0.68980513     1.37500
O384        O  0.87966771  0.11966453  0.71903691    -0.53000
O385        O  0.81153733  0.12448308  0.68554054    -0.51800
C386        C  0.97604655  0.12914211  0.68346046     0.81900
O387        O  0.86570502  0.15427597  0.66692895    -0.54200
O388        O  0.92833279  0.18778033  0.70734696    -0.52700
O389        O  0.85502184  0.04431830  0.67345603    -0.52700
O390        O  0.94562352  0.09720722  0.69280028    -0.51800
O391        O  0.14829373  0.72185417  0.88571244    -0.53000
C392        C  0.25220531  0.77293343  0.85078835     0.79600
O393        O  0.10877404  0.63740696  0.84316598    -0.54200
C394        C  0.10420879  0.68869685  0.88704382     0.79600
C395        C  0.12165456  0.77658190  0.83861052     0.82000
Cd396      Cd  0.14994359  0.71849647  0.85644402     1.37500
O397        O  0.23489759  0.77595507  0.86401844    -0.53000
O398        O  0.14037555  0.78904770  0.85233627    -0.51800
C399        C  0.13659246  0.62513400  0.84987482     0.81900
O400        O  0.11258551  0.73556604  0.83349930    -0.54200
O401        O  0.22245945  0.74684499  0.84010208    -0.52700
O402        O  0.07974410  0.67312806  0.87432731    -0.52700
O403        O  0.16980075  0.65592573  0.85877880    -0.51800
O404        O  0.98668574  0.87157865  0.78549871    -0.53000
C405        C  0.11929392  0.95696258  0.76299805     0.79600
O406        O  0.11171892  0.00811608  0.80690890    -0.54200
C407        C  0.96938068  0.87455025  0.79873747     0.79600
C408        C  0.09875171  0.86872603  0.81129788     0.82000
Cd409      Cd  0.07177746  0.92756892  0.79330868     1.37500
O410        O  0.07514633  0.92377355  0.76410980    -0.53000
O411        O  0.07926229  0.85591609  0.79768541    -0.51800
C412        C  0.08519406  0.02106565  0.79965801     0.81900
O413        O  0.10903594  0.91029619  0.81623558    -0.54200
O414        O  0.14301355  0.97272208  0.77584284    -0.52700
O415        O  0.99915017  0.89984359  0.80953250    -0.52700
O416        O  0.05334919  0.99097154  0.79023186    -0.51800
O417        O  0.78234334  0.94563946  0.78549483    -0.53000
C418        C  0.73543712  0.81343122  0.76282092     0.79600
O419        O  0.79486433  0.82193438  0.80670764    -0.54200
C420        C  0.80278070  0.96285351  0.79879863     0.79600
C421        C  0.66733625  0.83373810  0.81095249     0.82000
Cd422      Cd  0.75348822  0.86075215  0.79314129     1.37500
O423        O  0.74701579  0.85757148  0.76389247    -0.53000
O424        O  0.67408854  0.85276608  0.79725556    -0.51800
C425        C  0.83473616  0.84957514  0.79964670     0.81900
O426        O  0.69840577  0.82341380  0.81600313    -0.54200
O427        O  0.72675618  0.78960524  0.77567892    -0.52700
O428        O  0.79856112  0.93306047  0.80951859    -0.52700
O429        O  0.83638331  0.88157570  0.79038113    -0.51800
O430        O  0.47459175  0.79020296  0.88556431    -0.53000
C431        C  0.41848404  0.68521618  0.85085373     0.79600
O432        O  0.42714760  0.82715955  0.84294979    -0.54200
C433        C  0.48643234  0.83438634  0.88673989     0.79600
C434        C  0.55384751  0.81409907  0.83835933     0.82000
Cd435      Cd  0.46799899  0.78744278  0.85631927     1.37500
O436        O  0.43893705  0.70267530  0.86413412    -0.53000
O437        O  0.54735173  0.79538684  0.85209843    -0.51800
C438        C  0.38699808  0.79902611  0.84977941     0.81900
O439        O  0.52265037  0.82424889  0.83331672    -0.54200
O440        O  0.42276886  0.71482149  0.84005309    -0.52700
O441        O  0.49507729  0.85841451  0.87392780    -0.52700
O442        O  0.38501049  0.76643560  0.85882617    -0.51800
O443        O  0.06415294  0.15160173  0.78568196    -0.53000
C444        C  0.97774208  0.19602722  0.76310339     0.79600
O445        O  0.92666144  0.13758685  0.80687713    -0.54200
C446        C  0.06114701  0.13073773  0.79887569     0.79600
C447        C  0.06563208  0.26506876  0.81154493     0.82000
Cd448      Cd  0.00746763  0.17865553  0.79351999     1.37500
O449        O  0.01058944  0.18516364  0.76425583    -0.53000
O450        O  0.07817109  0.25960109  0.79779427    -0.51800
C451        C  0.91387247  0.09745992  0.80004895     0.81900
O452        O  0.02462721  0.23222669  0.81661474    -0.54200
O453        O  0.96250295  0.20423320  0.77591962    -0.52700
O454        O  0.03549213  0.13398642  0.80965965    -0.52700
O455        O  0.94432350  0.09547339  0.79105798    -0.51800
O456        O  0.21142817  0.46194761  0.88587148    -0.53000
C457        C  0.16052961  0.51554258  0.85096504     0.79600
O458        O  0.29522411  0.51011758  0.84307037    -0.54200
C459        C  0.24459257  0.45154583  0.88708152     0.79600
C460        C  0.15689992  0.38134368  0.83884823     0.82000
Cd461      Cd  0.21473204  0.46833754  0.85662010     1.37500
O462        O  0.15786848  0.49533152  0.86426654    -0.53000
O463        O  0.14411712  0.38727683  0.85249757    -0.51800
C464        C  0.30787009  0.55010493  0.84997620     0.81900
O465        O  0.19802777  0.41397707  0.83379014    -0.54200
O466        O  0.18604549  0.51191370  0.84021514    -0.52700
O467        O  0.26018827  0.44359297  0.87429794    -0.52700
O468        O  0.27753554  0.55166201  0.85914483    -0.51800
C469        C  0.12518065  0.34004338  0.82930370    -0.08500
C470        C  0.09743328  0.30614664  0.82116198    -0.10000
C471        C  0.35436900  0.59288596  0.84787757    -0.08500
C472        C  0.38797064  0.63398523  0.84851791    -0.10000
C473        C  0.83327999  0.01402932  0.80124736    -0.08500
C474        C  0.86706635  0.05499907  0.80201706    -0.10000
C475        C  0.62700705  0.82603096  0.82056031    -0.08500
C476        C  0.59406208  0.82169510  0.82871008    -0.10000
C477        C  0.91823231  0.85380742  0.80103861    -0.08500
C478        C  0.87732504  0.84613485  0.80168962    -0.10000
C479        C  0.08952672  0.06751432  0.80172389    -0.08500
C480        C  0.08212892  0.10083173  0.80111809    -0.10000
C481        C  0.34445132  0.80252588  0.84772676    -0.08500
C482        C  0.30341195  0.79445770  0.84840341    -0.10000
C483        C  0.13202946  0.57857247  0.84785620    -0.08500
C484        C  0.13939170  0.54524458  0.84856306    -0.10000
C485        C  0.11276656  0.80856189  0.82904676    -0.08500
C486        C  0.10729489  0.83660118  0.82091294    -0.10000
C487        C  0.93497894  0.18440175  0.73528986    -0.08500
C488        C  0.95575088  0.19468640  0.74798510    -0.10000
C489        C  0.76343562  0.15714748  0.65420562    -0.08500
C490        C  0.79182573  0.15216213  0.66230911    -0.10000
C491        C  0.73652899  0.79275571  0.74774452    -0.08500
C492        C  0.74668729  0.78234930  0.73508888    -0.10000
C493        C  0.80017828  0.92222464  0.68099699    -0.08500
C494        C  0.80806129  0.96322535  0.68173693    -0.10000
C495        C  0.75525565  0.38736349  0.63572575    -0.08500
C496        C  0.74718157  0.34628991  0.63500530    -0.10000
C497        C  0.77535775  0.63811304  0.65451090    -0.08500
C498        C  0.77960214  0.67120563  0.66256699    -0.10000
C499        C  0.49955367  0.18367854  0.63467030    -0.08500
C500        C  0.53266056  0.17600795  0.63538006    -0.10000
C501        C  0.58809423  0.43239535  0.63471889    -0.08500
C502        C  0.54700795  0.39883077  0.63539869    -0.10000
C503        C  0.15033608  0.99938238  0.73514100    -0.08500
C504        C  0.14006396  0.97880269  0.74787205    -0.10000
C505        C  0.05538018  0.12531498  0.68206690    -0.08500
C506        C  0.02227180  0.13300018  0.68143315    -0.10000
C507        C  0.96782483  0.87700904  0.68198959    -0.08500
C508        C  0.00894124  0.91051952  0.68130501    -0.10000
C509        C  0.29433823  0.16873814  0.65388027    -0.08500
C510        C  0.26047454  0.14078640  0.66199665    -0.10000
C511        C  0.28710263  0.46341904  0.91494889    -0.08500
C512        C  0.26648128  0.45308077  0.90223149    -0.10000
C513        C  0.43029585  0.49352159  0.98748102    -0.08500
C514        C  0.45840816  0.48808133  0.99556118    -0.10000
C515        C  0.46591044  0.25745380  0.01548847    -0.08500
C516        C  0.47391057  0.29852307  0.01608539    -0.10000
C517        C  0.47594866  0.86515991  0.91464260    -0.08500
C518        C  0.48573411  0.85490907  0.90189290    -0.10000
C519        C  0.42377917  0.72502033  0.96912944    -0.08500
C520        C  0.41549210  0.68386597  0.96850359    -0.10000
C521        C  0.44336390  0.97539115  0.98757900    -0.08500
C522        C  0.44746026  0.00820042  0.99576409    -0.10000
C523        C  0.72192451  0.46265331  0.01621144    -0.08500
C524        C  0.68857255  0.46994634  0.01552124    -0.10000
C525        C  0.63415358  0.21472363  0.01619208    -0.08500
C526        C  0.67518274  0.24843755  0.01555260    -0.10000
C527        C  0.08423960  0.66680782  0.90224410    -0.08500
C528        C  0.07422903  0.64632178  0.91499520    -0.10000
C529        C  0.19961661  0.51210653  0.96959103    -0.08500
C530        C  0.16625415  0.51938381  0.96893151    -0.10000
C531        C  0.25587236  0.76824614  0.96829368    -0.08500
C532        C  0.21480222  0.73463856  0.96904115    -0.10000
C533        C  0.96137351  0.50591900  0.98804978    -0.08500
C534        C  0.92740962  0.47822918  0.99618115    -0.10000
C535        C  0.61982270  0.12552741  0.58137584    -0.08500
C536        C  0.59927600  0.11556766  0.56864201    -0.10000
C537        C  0.43386696  0.97426145  0.48626364    -0.08500
C538        C  0.46124713  0.00782791  0.49458865    -0.10000
C539        C  0.41872472  0.33368355  0.56867498    -0.08500
C540        C  0.40805700  0.31250696  0.58130522    -0.10000
C541        C  0.46899289  0.24639455  0.51472874    -0.08500
C542        C  0.47607595  0.21286558  0.51534935    -0.10000
C543        C  0.41857451  0.76859111  0.46694310    -0.08500
C544        C  0.42592159  0.73526992  0.46782966    -0.10000
C545        C  0.44665617  0.50605118  0.48763890    -0.08500
C546        C  0.45210057  0.47803244  0.49580197    -0.10000
C547        C  0.82134909  0.51972907  0.56929693    -0.08500
C548        C  0.81085969  0.52972556  0.58196340    -0.10000
C549        C  0.72411617  0.29892982  0.51583074    -0.08500
C550        C  0.69027004  0.25798021  0.51508852    -0.10000
C551        C  0.68158771  0.46792252  0.51515173    -0.08500
C552        C  0.64072779  0.46038884  0.51575207    -0.10000
C553        C  0.20473110  0.72201932  0.46791107    -0.08500
C554        C  0.17112611  0.68088275  0.46757109    -0.10000
C555        C  0.25565967  0.51992240  0.46841770    -0.08500
C556        C  0.21468660  0.51201988  0.46919346    -0.10000
C557        C  0.96515155  0.49260617  0.48860650    -0.08500
C558        C  0.93194004  0.48786049  0.49669603    -0.10000
C559        C  0.80815492  0.31659610  0.08190979    -0.08500
C560        C  0.81811778  0.33713326  0.06917337    -0.10000
C561        C  0.78479873  0.14803265  0.16277332    -0.08500
C562        C  0.77896302  0.17615606  0.15481649    -0.10000
C563        C  0.61925062  0.53167611  0.08152727    -0.08500
C564        C  0.59889504  0.52154622  0.06876910    -0.10000
C565        C  0.74632019  0.43661303  0.13447118    -0.08500
C566        C  0.75453418  0.40385036  0.13523839    -0.10000
C567        C  0.80702088  0.88115895  0.18180816    -0.08500
C568        C  0.80058944  0.91508122  0.18099996    -0.10000
C569        C  0.75894474  0.63958084  0.15476529    -0.08500
C570        C  0.78686753  0.67319453  0.16295972    -0.10000
C571        C  0.41257411  0.11370855  0.06927383    -0.08500
C572        C  0.40250461  0.12344032  0.08206049    -0.10000
C573        C  0.53117010  0.38689685  0.13503236    -0.08500
C574        C  0.49813243  0.34549724  0.13450489    -0.10000
C575        C  0.54578493  0.17948007  0.13595197    -0.08500
C576        C  0.58699827  0.18806115  0.13530684    -0.10000
C577        C  0.05378365  0.96400800  0.18262090    -0.08500
C578        C  0.01965911  0.92324059  0.18181137    -0.10000
C579        C  0.01460681  0.13587100  0.18191270    -0.08500
C580        C  0.97394015  0.12892555  0.18231947    -0.10000
C581        C  0.29518576  0.15581925  0.15570663    -0.08500
C582        C  0.26230686  0.15124114  0.16393755    -0.10000
C583        C  0.74118909  0.98098240  0.24753724    -0.08500
C584        C  0.75187395  0.00231159  0.23493667    -0.10000
C585        C  0.48485033  0.66785220  0.40160567    -0.08500
C586        C  0.47500708  0.64706353  0.41430314    -0.10000
C587        C  0.59378938  0.80877264  0.32832637    -0.08500
C588        C  0.62731753  0.83662689  0.32008573    -0.10000
C589        C  0.95067967  0.79284559  0.24825988    -0.08500
C590        C  0.92977004  0.78308663  0.23559553    -0.10000
C591        C  0.83146332  0.85073470  0.30112197    -0.08500
C592        C  0.86437833  0.84281456  0.30202760    -0.10000
C593        C  0.29120902  0.86198700  0.41341460    -0.08500
C594        C  0.26997329  0.85140740  0.40080177    -0.10000
C595        C  0.35608098  0.80060042  0.34693365    -0.08500
C596        C  0.38944080  0.79335003  0.34777025    -0.10000
C597        C  0.12338990  0.81636922  0.32840152    -0.08500
C598        C  0.09463034  0.82124856  0.32047654    -0.10000
C599        C  0.08190387  0.44807642  0.40267598    -0.08500
C600        C  0.07216367  0.45837262  0.41542004    -0.10000
C601        C  0.34281642  0.57879092  0.34814162    -0.08500
C602        C  0.30184349  0.54505722  0.34892304    -0.10000
C603        C  0.14142591  0.62870930  0.34830849    -0.08500
C604        C  0.13345304  0.58764468  0.34785126    -0.10000
C605        C  0.14241978  0.19263532  0.24977834    -0.08500
C606        C  0.15238861  0.18251112  0.23704187    -0.10000
C607        C  0.92113564  0.09882366  0.30222602    -0.08500
C608        C  0.87984115  0.06558651  0.30253138    -0.10000
C609        C  0.07991017  0.01131407  0.30307728    -0.08500
C610        C  0.08821103  0.05242038  0.30399106    -0.10000
C611        C  0.11444484  0.33698358  0.33037783    -0.08500
C612        C  0.11003237  0.30369491  0.32240273    -0.10000
loop_ 
_geom_bond_atom_site_label_1 
_geom_bond_atom_site_label_2 
_geom_bond_distance 
_geom_bond_site_symmetry_2 
_ccdc_geom_bond_type 
O1            C4   1.266       .  A
O1           Cd6   2.456       .  S
C2           O11   1.263   1_655  A
C2            O7   1.268       .  A
C2          C607   1.430       .  S
O3            C9   1.270       .  A
O3           Cd6   2.497       .  S
C4           O12   1.265       .  A
C4          C605   1.437       .  S
C5           O10   1.267       .  A
C5            O8   1.264       .  A
C5          C612   1.433       .  S
Cd6          O13   2.391       .  S
Cd6          O12   2.469       .  S
Cd6          O11   2.437       .  S
Cd6           O7   2.458   1_455  S
Cd6          O10   2.463       .  S
Cd6           O8   2.442       .  S
C9           O13   1.261       .  A
C9          C610   1.430       .  S
O14          C17   1.266       .  A
O14         Cd19   2.456       .  S
C15          O24   1.263       .  A
C15          O20   1.268       .  A
C15         C602   1.430       .  S
O16          C22   1.267       .  A
O16         Cd19   2.463       .  S
C17          O25   1.265       .  A
C17         C599   1.437       .  S
C18          O23   1.270       .  A
C18          O21   1.261       .  A
C18         C604   1.430       .  S
Cd19         O26   2.443       .  S
Cd19         O25   2.468       .  S
Cd19         O24   2.436       .  S
Cd19         O20   2.460       .  S
Cd19         O23   2.497       .  S
Cd19         O21   2.392       .  S
C22          O26   1.264       .  A
C22         C611   1.433       .  S
O27          C30   1.268       .  A
O27         Cd32   2.463       .  S
C28          O37   1.264       .  A
C28          O33   1.266       .  A
C28         C594   1.437       .  S
O29          C35   1.270       .  A
O29         Cd32   2.497       .  S
C30          O38   1.263       .  A
C30         C603   1.432       .  S
C31          O36   1.267       .  A
C31          O34   1.264       .  A
C31         C597   1.434       .  S
Cd32         O39   2.391       .  S
Cd32         O38   2.440       .  S
Cd32         O37   2.468       .  S
Cd32         O33   2.458       .  S
Cd32         O36   2.464       .  S
Cd32         O34   2.445       .  S
C35          O39   1.261       .  A
C35         C595   1.430       .  S
O40          C43   1.267   1_455  A
O40         Cd45   2.457       .  S
C41          O50   1.263       .  A
C41          O46   1.268       .  A
C41         C609   1.431   1_565  S
O42          C48   1.270       .  A
O42         Cd45   2.497   1_655  S
C43          O51   1.265       .  A
C43         C589   1.437       .  S
C44          O49   1.267       .  A
C44          O47   1.264       .  A
C44         C598   1.434       .  S
Cd45         O52   2.391   1_455  S
Cd45         O51   2.464   1_455  S
Cd45         O50   2.438       .  S
Cd45         O46   2.462       .  S
Cd45         O49   2.463       .  S
Cd45         O47   2.442       .  S
C48          O52   1.261       .  A
C48         C592   1.430       .  S
O53          C56   1.268       .  A
O53         Cd58   2.466       .  S
C54          O63   1.264       .  A
C54          O59   1.267       .  A
C54         C585   1.437       .  S
O55          C61   1.269       .  A
O55         Cd58   2.491       .  S
C56          O64   1.263       .  A
C56         C596   1.432       .  S
C57          O62   1.266       .  A
C57          O60   1.264       .  A
C57         C587   1.432       .  S
Cd58         O65   2.392       .  S
Cd58         O64   2.437       .  S
Cd58         O63   2.465       .  S
Cd58         O59   2.460       .  S
Cd58         O62   2.456       .  S
Cd58         O60   2.442       .  S
C61          O65   1.261       .  A
C61         C601   1.429       .  S
O66          C69   1.267       .  A
O66         Cd71   2.460       .  S
C67          O76   1.263       .  A
C67          O72   1.268       .  A
C67         C591   1.432       .  S
O68          C74   1.269       .  A
O68         Cd71   2.490   1_545  S
C69          O77   1.264       .  A
C69         C583   1.437       .  S
C70          O75   1.266       .  A
C70          O73   1.264       .  A
C70         C588   1.432       .  S
Cd71         O78   2.392       .  S
Cd71         O77   2.466       .  S
Cd71         O76   2.437       .  S
Cd71         O72   2.468       .  S
Cd71         O75   2.455       .  S
Cd71         O73   2.444       .  S
C74          O78   1.261   1_545  A
C74         C608   1.429       .  S
O79          C82   1.266       .  A
O79         Cd84   2.459       .  S
C80          O89   1.263       .  A
C80          O85   1.268       .  A
C80         C577   1.431   1_545  S
O81          C87   1.269       .  A
O81         Cd84   2.497       .  S
C82          O90   1.264       .  A
C82         C606   1.437       .  S
C83          O88   1.266       .  A
C83          O86   1.264       .  A
C83         C582   1.434       .  S
Cd84         O91   2.396       .  S
Cd84         O90   2.468       .  S
Cd84         O89   2.436       .  S
Cd84         O85   2.462       .  S
Cd84         O88   2.462       .  S
Cd84         O86   2.447       .  S
C87          O91   1.261       .  A
C87         C579   1.431       .  S
O92          C95   1.266       .  A
O92         Cd97   2.457       .  S
C93         O102   1.263       .  A
C93          O98   1.268       .  A
C93         C574   1.430       .  S
O94         C100   1.266       .  A
O94         Cd97   2.464       .  S
C95         O103   1.265       .  A
C95         C572   1.437       .  S
C96         O101   1.269       .  A
C96          O99   1.261       .  A
C96         C575   1.431       .  S
Cd97        O104   2.445       .  S
Cd97        O103   2.469       .  S
Cd97        O102   2.436       .  S
Cd97         O98   2.462       .  S
Cd97        O101   2.496       .  S
Cd97         O99   2.395       .  S
C100        O104   1.264       .  A
C100        C581   1.434       .  S
O105        C108   1.268       .  A
O105       Cd110   2.466       .  S
C106        O115   1.264       .  A
C106        O111   1.267       .  A
C106        C590   1.437       .  S
O107        C113   1.266       .  A
O107       Cd110   2.455       .  S
C108        O116   1.263       .  A
C108        C567   1.432       .  S
C109        O114   1.269       .  A
C109        O112   1.261       .  A
C109        C578   1.429   1_655  S
Cd110       O117   2.443       .  S
Cd110       O116   2.438       .  S
Cd110       O115   2.463       .  S
Cd110       O111   2.459       .  S
Cd110       O114   2.492       .  S
Cd110       O112   2.391       .  S
C113        O117   1.264       .  A
C113        C570   1.431       .  S
O118        C121   1.268       .  A
O118       Cd123   2.467       .  S
C119        O128   1.264       .  A
C119        O124   1.267       .  A
C119        C563   1.436       .  S
O120        C126   1.269       .  A
O120       Cd123   2.491       .  S
C121        O129   1.263       .  A
C121        C565   1.432       .  S
C122        O127   1.266       .  A
C122        O125   1.264       .  A
C122        C569   1.431       .  S
Cd123       O130   2.394       .  S
Cd123       O129   2.438       .  S
Cd123       O128   2.465       .  S
Cd123       O124   2.456       .  S
Cd123       O127   2.457       .  S
Cd123       O125   2.441       .  S
C126        O130   1.261       .  A
C126        C573   1.429       .  S
O131        C134   1.268       .  A
O131       Cd136   2.464       .  S
C132        O141   1.264       .  A
C132        O137   1.266       .  A
C132        C559   1.437       .  S
O133        C139   1.270       .  A
O133       Cd136   2.497       .  S
C134        O142   1.263       .  A
C134        C576   1.432       .  S
C135        O140   1.267       .  A
C135        O138   1.264       .  A
C135        C562   1.434       .  S
Cd136       O143   2.394       .  S
Cd136       O142   2.440       .  S
Cd136       O141   2.465       .  S
Cd136       O137   2.456       .  S
Cd136       O140   2.465       .  S
Cd136       O138   2.443       .  S
C139        O143   1.261       .  A
C139        C566   1.431       .  S
O144        C147   1.266       .  A
O144       Cd149   2.458       .  S
C145        O154   1.263       .  A
C145        O150   1.268       .  A
C145        C580   1.432       .  S
O146        C152   1.270       .  A
O146       Cd149   2.497   1_565  S
C147        O155   1.264       .  A
C147        C584   1.437       .  S
C148        O153   1.266       .  A
C148        O151   1.264       .  A
C148        C561   1.434       .  S
Cd149       O156   2.393   1_545  S
Cd149       O155   2.466       .  S
Cd149       O154   2.441       .  S
Cd149       O150   2.464       .  S
Cd149       O153   2.463       .  S
Cd149       O151   2.447       .  S
C152        O156   1.261       .  A
C152        C568   1.430       .  S
O157        C160   1.266       .  A
O157       Cd162   2.457       .  S
C158        O167   1.263       .  A
C158        O163   1.268       .  A
C158        C554   1.430       .  S
O159        C165   1.267       .  A
O159       Cd162   2.465       .  S
C160        O168   1.265       .  A
C160        C600   1.437       .  S
C161        O166   1.270       .  A
C161        O164   1.261       .  A
C161        C556   1.431       .  S
Cd162       O169   2.446       .  S
Cd162       O168   2.468       .  S
Cd162       O167   2.437       .  S
Cd162       O163   2.460       .  S
Cd162       O166   2.499       .  S
Cd162       O164   2.395       .  S
C165        O169   1.264       .  A
C165        C557   1.434   1_455  S
O170        C173   1.267       .  A
O170       Cd175   2.457       .  S
C171        O180   1.263       .  A
C171        O176   1.268       .  A
C171        C549   1.431       .  S
O172        C178   1.270       .  A
O172       Cd175   2.496       .  S
C173        O181   1.265       .  A
C173        C547   1.437       .  S
C174        O179   1.267       .  A
C174        O177   1.264       .  A
C174        C558   1.434       .  S
Cd175       O182   2.394       .  S
Cd175       O181   2.466       .  S
Cd175       O180   2.436       .  S
Cd175       O176   2.463       .  S
Cd175       O179   2.464       .  S
Cd175       O177   2.446       .  S
C178        O182   1.261       .  A
C178        C551   1.431       .  S
O183        C186   1.267       .  A
O183       Cd188   2.459       .  S
C184        O193   1.263       .  A
C184        O189   1.268       .  A
C184        C555   1.432       .  S
O185        C191   1.266       .  A
O185       Cd188   2.464       .  S
C186        O194   1.264       .  A
C186        C586   1.437       .  S
C187        O192   1.270       .  A
C187        O190   1.261       .  A
C187        C544   1.430       .  S
Cd188       O195   2.447       .  S
Cd188       O194   2.466       .  S
Cd188       O193   2.440       .  S
Cd188       O189   2.466       .  S
Cd188       O192   2.496       .  S
Cd188       O190   2.393       .  S
C191        O195   1.264       .  A
C191        C545   1.434       .  S
O196        C199   1.268       .  A
O196       Cd201   2.465       .  S
C197        O206   1.264       .  A
C197        O202   1.267       .  A
C197        C539   1.437       .  S
O198        C204   1.266       .  A
O198       Cd201   2.463       .  S
C199        O207   1.263       .  A
C199        C552   1.432       .  S
C200        O205   1.270       .  A
C200        O203   1.261       .  A
C200        C541   1.431       .  S
Cd201       O208   2.449       .  S
Cd201       O207   2.439       .  S
Cd201       O206   2.467       .  S
Cd201       O202   2.459       .  S
Cd201       O205   2.496       .  S
Cd201       O203   2.394       .  S
C204        O208   1.264       .  A
C204        C546   1.434       .  S
O209        C212   1.268       .  A
O209       Cd214   2.468       .  S
C210        O219   1.264       .  A
C210        O215   1.267       .  A
C210        C593   1.437       .  S
O211        C217   1.269       .  A
O211       Cd214   2.491       .  S
C212        O220   1.263       .  A
C212        C543   1.432       .  S
C213        O218   1.266       .  A
C213        O216   1.264       .  A
C213        C537   1.433       .  S
Cd214       O221   2.394       .  S
Cd214       O220   2.438       .  S
Cd214       O219   2.465       .  S
Cd214       O215   2.461       .  S
Cd214       O218   2.457       .  S
Cd214       O216   2.447       .  S
C217        O221   1.261       .  A
C217        C553   1.429       .  S
O222        C225   1.266       .  A
O222       Cd227   2.461       .  S
C223        O232   1.263       .  A
C223        O228   1.268       .  A
C223        C542   1.432       .  S
O224        C230   1.269       .  A
O224       Cd227   2.492       .  S
C225        O233   1.264       .  A
C225        C536   1.437       .  S
C226        O231   1.266       .  A
C226        O229   1.264       .  A
C226        C538   1.433       .  S
Cd227       O234   2.395       .  S
Cd227       O233   2.466       .  S
Cd227       O232   2.439       .  S
Cd227       O228   2.467       .  S
Cd227       O231   2.460       .  S
Cd227       O229   2.446       .  S
C230        O234   1.261       .  A
C230        C550   1.430       .  S
O235        C238   1.267       .  A
O235       Cd240   2.461       .  S
C236        O245   1.263       .  A
C236        O241   1.268       .  A
C236        C530   1.431       .  S
O237        C243   1.269       .  A
O237       Cd240   2.494       .  S
C238        O246   1.264       .  A
C238        C528   1.437       .  S
C239        O244   1.266       .  A
C239        O242   1.264       .  A
C239        C533   1.433   1_455  S
Cd240       O247   2.395       .  S
Cd240       O246   2.465       .  S
Cd240       O245   2.439       .  S
Cd240       O241   2.464       .  S
Cd240       O244   2.460       .  S
Cd240       O242   2.445       .  S
C243        O247   1.261       .  A
C243        C532   1.430       .  S
O248        C251   1.268       .  A
O248       Cd253   2.465       .  S
C249        O258   1.264       .  A
C249        O254   1.266       .  A
C249        C560   1.437       .  S
O250        C256   1.269       .  A
O250       Cd253   2.493       .  S
C251        O259   1.263       .  A
C251        C523   1.431       .  S
C252        O257   1.266       .  A
C252        O255   1.264       .  A
C252        C534   1.433   1_554  S
Cd253       O260   2.395       .  S
Cd253       O259   2.438       .  S
Cd253       O258   2.465       .  S
Cd253       O254   2.457       .  S
Cd253       O257   2.460       .  S
Cd253       O255   2.445       .  S
C256        O260   1.261       .  A
C256        C526   1.430       .  S
O261        C264   1.266       .  A
O261       Cd266   2.458       .  S
C262        O271   1.263       .  A
C262        O267   1.268       .  A
C262        C531   1.431       .  S
O263        C269   1.270       .  A
O263       Cd266   2.497       .  S
C264        O272   1.265       .  A
C264        C517   1.438       .  S
C265        O270   1.267       .  A
C265        O268   1.264       .  A
C265        C521   1.434       .  S
Cd266       O273   2.392       .  S
Cd266       O272   2.469       .  S
Cd266       O271   2.437       .  S
Cd266       O267   2.462       .  S
Cd266       O270   2.465       .  S
Cd266       O268   2.446       .  S
C269        O273   1.261       .  A
C269        C519   1.430       .  S
O274        C277   1.268       .  A
O274       Cd279   2.462       .  S
C275        O284   1.265       .  A
C275        O280   1.266       .  A
C275        C571   1.437       .  S
O276        C282   1.270       .  A
O276       Cd279   2.498       .  S
C277        O285   1.263       .  A
C277        C525   1.431       .  S
C278        O283   1.267       .  A
C278        O281   1.264       .  A
C278        C522   1.435   1_554  S
Cd279       O286   2.395       .  S
Cd279       O285   2.436       .  S
Cd279       O284   2.468       .  S
Cd279       O280   2.457       .  S
Cd279       O283   2.466       .  S
Cd279       O281   2.446       .  S
C282        O286   1.261       .  A
C282        C515   1.431       .  S
O287        C290   1.266       .  A
O287       Cd292   2.458       .  S
C288        O297   1.263       .  A
C288        O293   1.268       .  A
C288        C520   1.432       .  S
O289        C295   1.269       .  A
O289       Cd292   2.496       .  S
C290        O298   1.264       .  A
C290        C511   1.437       .  S
C291        O296   1.266       .  A
C291        O294   1.264       .  A
C291        C513   1.433       .  S
Cd292       O299   2.393       .  S
Cd292       O298   2.467       .  S
Cd292       O297   2.441       .  S
Cd292       O293   2.464       .  S
Cd292       O296   2.460       .  S
Cd292       O294   2.445       .  S
C295        O299   1.261       .  A
C295        C529   1.430       .  S
O300        C303   1.268       .  A
O300       Cd305   2.466       .  S
C301        O310   1.264       .  A
C301        O306   1.266       .  A
C301        C564   1.436       .  S
O302        C308   1.269       .  A
O302       Cd305   2.495       .  S
C303        O311   1.263       .  A
C303        C516   1.432       .  S
C304        O309   1.266       .  A
C304        O307   1.264       .  A
C304        C514   1.433   1_554  S
Cd305       O312   2.395       .  S
Cd305       O311   2.440       .  S
Cd305       O310   2.466       .  S
Cd305       O306   2.455       .  S
Cd305       O309   2.462       .  S
Cd305       O307   2.443       .  S
C308        O312   1.261       .  A
C308        C524   1.430       .  S
O313        C316   1.266       .  A
O313       Cd318   2.458       .  S
C314        O323   1.263       .  A
C314        O319   1.268       .  A
C314        C505   1.432       .  S
O315        C321   1.266       .  A
O315       Cd318   2.460       .  S
C316        O324   1.264       .  A
C316        C503   1.437   1_545  S
C317        O322   1.269       .  A
C317        O320   1.261       .  A
C317        C508   1.429       .  S
Cd318       O325   2.444       .  S
Cd318       O324   2.466       .  S
Cd318       O323   2.439       .  S
Cd318       O319   2.466       .  S
Cd318       O322   2.493   1_545  S
Cd318       O320   2.393   1_545  S
C321        O325   1.264       .  A
C321        C510   1.433       .  S
O326        C329   1.268       .  A
O326       Cd331   2.465       .  S
C327        O336   1.264       .  A
C327        O332   1.267       .  A
C327        C540   1.437       .  S
O328        C334   1.266       .  A
O328       Cd331   2.458       .  S
C329        O337   1.263       .  A
C329        C499   1.432       .  S
C330        O335   1.269       .  A
C330        O333   1.261       .  A
C330        C502   1.429       .  S
Cd331       O338   2.445       .  S
Cd331       O337   2.439       .  S
Cd331       O336   2.465       .  S
Cd331       O332   2.460       .  S
Cd331       O335   2.492       .  S
Cd331       O333   2.392       .  S
C334        O338   1.264       .  A
C334        C509   1.433       .  S
O339        C342   1.267       .  A
O339       Cd344   2.457       .  S
C340        O349   1.263       .  A
C340        O345   1.268       .  A
C340        C501   1.430       .  S
O341        C347   1.270       .  A
O341       Cd344   2.497       .  S
C342        O350   1.265       .  A
C342        C548   1.437       .  S
C343        O348   1.267       .  A
C343        O346   1.264       .  A
C343        C497   1.434       .  S
Cd344       O351   2.394       .  S
Cd344       O350   2.467       .  S
Cd344       O349   2.434       .  S
Cd344       O345   2.462       .  S
Cd344       O348   2.464       .  S
Cd344       O346   2.444       .  S
C347        O351   1.261       .  A
C347        C495   1.431       .  S
O352        C355   1.268       .  A
O352       Cd357   2.461       .  S
C353        O362   1.265       .  A
C353        O358   1.267       .  A
C353        C492   1.438       .  S
O354        C360   1.270       .  A
O354       Cd357   2.497       .  S
C355        O363   1.263       .  A
C355        C507   1.431       .  S
C356        O361   1.267       .  A
C356        O359   1.264       .  A
C356        C498   1.434       .  S
Cd357       O364   2.393       .  S
Cd357       O363   2.436       .  S
Cd357       O362   2.467       .  S
Cd357       O358   2.458       .  S
Cd357       O361   2.463       .  S
Cd357       O359   2.445       .  S
C360        O364   1.261       .  A
C360        C493   1.431       .  S
O365        C368   1.267       .  A
O365       Cd370   2.457       .  S
C366        O375   1.263       .  A
C366        O371   1.268       .  A
C366        C496   1.432       .  S
O367        C373   1.270       .  A
O367       Cd370   2.497       .  S
C368        O376   1.265       .  A
C368        C535   1.437       .  S
C369        O374   1.267       .  A
C369        O372   1.264       .  A
C369        C489   1.434       .  S
Cd370       O377   2.393       .  S
Cd370       O376   2.468       .  S
Cd370       O375   2.439       .  S
Cd370       O371   2.465       .  S
Cd370       O374   2.464       .  S
Cd370       O372   2.447       .  S
C373        O377   1.261       .  A
C373        C500   1.430       .  S
O378        C381   1.268       .  A
O378       Cd383   2.465       .  S
C379        O388   1.265       .  A
C379        O384   1.267       .  A
C379        C487   1.437       .  S
O380        C386   1.270       .  A
O380       Cd383   2.496       .  S
C381        O389   1.263       .  A
C381        C494   1.432   1_545  S
C382        O387   1.267       .  A
C382        O385   1.264       .  A
C382        C490   1.434       .  S
Cd383       O390   2.394       .  S
Cd383       O389   2.438       .  S
Cd383       O388   2.467       .  S
Cd383       O384   2.458       .  S
Cd383       O387   2.464       .  S
Cd383       O385   2.446       .  S
C386        O390   1.261       .  A
C386        C506   1.431   1_655  S
O391        C394   1.266       .  A
O391       Cd396   2.459       .  S
C392        O401   1.263       .  A
C392        O397   1.268       .  A
C392        C482   1.432       .  S
O393        C399   1.269       .  A
O393       Cd396   2.496       .  S
C394        O402   1.264       .  A
C394        C527   1.437       .  S
C395        O400   1.266       .  A
C395        O398   1.264       .  A
C395        C485   1.434       .  S
Cd396       O403   2.393       .  S
Cd396       O402   2.467       .  S
Cd396       O401   2.440       .  S
Cd396       O397   2.465       .  S
Cd396       O400   2.462       .  S
Cd396       O398   2.448       .  S
C399        O403   1.261       .  A
C399        C483   1.430       .  S
O404        C407   1.268       .  A
O404       Cd409   2.466   1_655  S
C405        O414   1.264       .  A
C405        O410   1.266       .  A
C405        C504   1.437       .  S
O406        C412   1.269       .  A
O406       Cd409   2.495   1_545  S
C407        O415   1.263       .  A
C407        C477   1.432       .  S
C408        O413   1.266       .  A
C408        O411   1.264       .  A
C408        C486   1.434       .  S
Cd409       O416   2.394       .  S
Cd409       O415   2.440   1_455  S
Cd409       O414   2.466       .  S
Cd409       O410   2.457       .  S
Cd409       O413   2.462       .  S
Cd409       O411   2.447       .  S
C412        O416   1.261   1_545  A
C412        C479   1.430       .  S
O417        C420   1.268       .  A
O417       Cd422   2.463       .  S
C418        O427   1.265       .  A
C418        O423   1.267       .  A
C418        C491   1.438       .  S
O419        C425   1.270       .  A
O419       Cd422   2.496       .  S
C420        O428   1.263       .  A
C420        C473   1.431   1_565  S
C421        O426   1.267       .  A
C421        O424   1.264       .  A
C421        C475   1.434       .  S
Cd422       O429   2.395       .  S
Cd422       O428   2.434       .  S
Cd422       O427   2.467       .  S
Cd422       O423   2.459       .  S
Cd422       O426   2.464       .  S
Cd422       O424   2.446       .  S
C425        O429   1.261       .  A
C425        C478   1.431       .  S
O430        C433   1.266       .  A
O430       Cd435   2.459       .  S
C431        O440   1.263       .  A
C431        O436   1.268       .  A
C431        C472   1.431       .  S
O432        C438   1.270       .  A
O432       Cd435   2.498       .  S
C433        O441   1.265       .  A
C433        C518   1.438       .  S
C434        O439   1.267       .  A
C434        O437   1.264       .  A
C434        C476   1.434       .  S
Cd435       O442   2.394       .  S
Cd435       O441   2.469       .  S
Cd435       O440   2.436       .  S
Cd435       O436   2.462       .  S
Cd435       O439   2.465       .  S
Cd435       O437   2.446       .  S
C438        O442   1.261       .  A
C438        C481   1.431       .  S
O443        C446   1.268       .  A
O443       Cd448   2.465       .  S
C444        O453   1.264       .  A
C444        O449   1.266   1_655  A
C444        C488   1.437       .  S
O445        C451   1.269       .  A
O445       Cd448   2.493   1_655  S
C446        O454   1.263       .  A
C446        C480   1.432       .  S
C447        O452   1.266       .  A
C447        O450   1.264       .  A
C447        C470   1.433       .  S
Cd448       O455   2.393   1_455  S
Cd448       O454   2.439       .  S
Cd448       O453   2.466   1_455  S
Cd448       O449   2.460       .  S
Cd448       O452   2.459       .  S
Cd448       O450   2.446       .  S
C451        O455   1.261       .  A
C451        C474   1.429       .  S
O456        C459   1.266       .  A
O456       Cd461   2.459       .  S
C457        O466   1.263       .  A
C457        O462   1.268       .  A
C457        C484   1.431       .  S
O458        C464   1.269       .  A
O458       Cd461   2.493       .  S
C459        O467   1.264       .  A
C459        C512   1.437       .  S
C460        O465   1.266       .  A
C460        O463   1.264       .  A
C460        C469   1.432       .  S
Cd461       O468   2.394       .  S
Cd461       O467   2.465       .  S
Cd461       O466   2.439       .  S
Cd461       O462   2.465       .  S
Cd461       O465   2.459       .  S
Cd461       O463   2.445       .  S
C464        O468   1.261       .  A
C464        C471   1.429       .  S
C469        C470   1.204       .  T
C471        C472   1.203       .  T
C473        C474   1.203       .  T
C475        C476   1.205       .  T
C477        C478   1.204       .  T
C479        C480   1.203       .  T
C481        C482   1.204       .  T
C483        C484   1.203       .  T
C485        C486   1.205       .  T
C487        C488   1.207       .  T
C489        C490   1.205       .  T
C491        C492   1.208       .  T
C493        C494   1.204       .  T
C495        C496   1.204       .  T
C497        C498   1.205       .  T
C499        C500   1.204       .  T
C501        C502   1.203       .  T
C503        C504   1.207       .  T
C505        C506   1.204       .  T
C507        C508   1.203   1_655  T
C509        C510   1.204       .  T
C511        C512   1.207       .  T
C513        C514   1.205       .  T
C515        C516   1.204       .  T
C517        C518   1.208       .  T
C519        C520   1.204       .  T
C521        C522   1.206   1_565  T
C523        C524   1.203       .  T
C525        C526   1.203       .  T
C527        C528   1.207       .  T
C529        C530   1.203       .  T
C531        C532   1.203       .  T
C533        C534   1.204       .  T
C535        C536   1.207       .  T
C537        C538   1.204   1_565  T
C539        C540   1.207       .  T
C541        C542   1.204       .  T
C543        C544   1.204       .  T
C545        C546   1.205       .  T
C547        C548   1.207       .  T
C549        C550   1.203       .  T
C551        C552   1.204       .  T
C553        C554   1.203       .  T
C555        C556   1.204       .  T
C557        C558   1.205       .  T
C559        C560   1.207       .  T
C561        C562   1.205       .  T
C563        C564   1.207       .  T
C565        C566   1.204       .  T
C567        C568   1.203       .  T
C569        C570   1.204       .  T
C571        C572   1.207       .  T
C573        C574   1.203       .  T
C575        C576   1.204       .  T
C577        C578   1.203       .  T
C579        C580   1.204   1_455  T
C581        C582   1.205       .  T
C583        C584   1.207   1_565  T
C585        C586   1.207       .  T
C587        C588   1.204       .  T
C589        C590   1.207       .  T
C591        C592   1.204       .  T
C593        C594   1.207       .  T
C595        C596   1.203       .  T
C597        C598   1.205       .  T
C599        C600   1.207       .  T
C601        C602   1.203       .  T
C603        C604   1.204       .  T
C605        C606   1.207       .  T
C607        C608   1.202       .  T
C609        C610   1.203       .  T
C611        C612   1.205       .  T
