geometry optimzed in LAMMPS
_audit_creation_date              2020-12-01 
_audit_creation_method            'lammps2cif' 
_symmetry_space_group_name_H-M    'P1' 
_symmetry_Int_Tables_number       1 
_symmetry_cell_setting            triclinic 
loop_ 
_symmetry_equiv_pos_as_xyz 
  x,y,z 
_cell_length_a                    38.69514736 
_cell_length_b                    38.582358963002434 
_cell_length_c                    73.81480483422949 
_cell_angle_alpha                 89.93496617936378 
_cell_angle_beta                  89.96552080239798 
_cell_angle_gamma                 90.39357070967743 
loop_ 
_atom_site_label 
_atom_site_type_symbol 
_atom_site_fract_x 
_atom_site_fract_y 
_atom_site_fract_z 
_atom_site_charge 
C1          C  0.83562101  0.62762695  0.32235576     0.80300
N2          N  0.85026632  0.61191285  0.33689217    -0.78000
C3          C  0.88157576  0.62271420  0.34312435     0.82800
N4          N  0.89817598  0.64954049  0.33482583    -0.77900
C5          C  0.88391773  0.66474335  0.32005223     0.82900
N6          N  0.85287119  0.65362181  0.31387335    -0.79700
C7          C  0.74130237  0.72904981  0.11596149     0.80300
N8          N  0.77453948  0.73864243  0.11919015    -0.78000
C9          C  0.78849939  0.76711621  0.11107929     0.82800
N10         N  0.76867436  0.78614310  0.09961911    -0.77900
C11         C  0.73540403  0.77684979  0.09615819     0.82900
N12         N  0.72201793  0.74836517  0.10445928    -0.79700
C13         C  0.33846500  0.72598875  0.33560117     0.80300
N14         N  0.30946881  0.73940815  0.32817243    -0.78000
C15         C  0.29990538  0.77254827  0.33141890     0.82800
N16         N  0.32018244  0.79272713  0.34212183    -0.77900
C17         C  0.34929470  0.77980323  0.34973328     0.82900
N18         N  0.35836823  0.74641560  0.34644504    -0.79700
C19         C  0.88315507  0.31169672  0.11369062     0.80300
N20         N  0.89389220  0.28163743  0.12136920    -0.78000
C21         C  0.87818259  0.26906362  0.13645628     0.82800
N22         N  0.85180217  0.28680801  0.14397686    -0.77900
C23         C  0.84102609  0.31698012  0.13658611     0.82900
N24         N  0.85652790  0.32912019  0.12134252    -0.79700
C25         C  0.12106069  0.88985896  0.25649488     0.42600
N26         N  0.10539483  0.93229194  0.23968501     0.01400
C27         C  0.94671014  0.01347470  0.24122030    -0.06400
H28         H  0.94289642  0.87929923  0.22791920     0.06900
C29         C  0.00970476  0.90297491  0.17052046    -0.06800
Co30       Co  0.03749039  0.96049619  0.25140541     0.74200
N31         N  0.98189908  0.91709650  0.23516671    -0.26000
Co32       Co  0.97920119  0.95727080  0.21630728     0.74100
C33         C  0.97961466  0.88209760  0.17572370     0.42700
N34         N  0.08829147  0.93638299  0.18623260     0.01100
N35         N  0.98705693  0.92268404  0.19518824     0.01200
N36         N  0.98536085  0.01434623  0.26420205    -0.46800
H37         H  0.07118093  0.89324041  0.27354055     0.06900
N38         N  0.00448580  0.91860128  0.24849682     0.01400
N39         N  0.97854558  0.99765252  0.19755189     0.01200
C40         C  0.96460182  0.04152583  0.18158193     0.42800
N41         N  0.11065914  0.93737377  0.19969455    -0.25400
C42         C  0.07216497  0.02647695  0.26630906    -0.06300
N43         N  0.13088735  0.91028029  0.24250752    -0.46500
N44         N  0.95424101  0.02135805  0.19554930    -0.46700
C45         C  0.10240757  0.04736743  0.26171918     0.42600
N46         N  0.99503608  0.99312539  0.25109114     0.01400
N47         N  0.10288379  0.01198075  0.20163756    -0.25400
N48         N  0.07970323  0.92796270  0.25119691    -0.25900
N49         N  0.08050709  0.01083400  0.18818005     0.01100
H50         H  0.14792809  0.04340188  0.20669520     0.07000
H51         H  0.01455945  0.03839881  0.16468459     0.07000
N52         N  0.97275624  0.99187243  0.23761383    -0.26000
N53         N  0.01229558  0.92733118  0.18340630    -0.25600
N54         N  0.09665389  0.00709875  0.24202295     0.01400
C55         C  0.97777976  0.87064940  0.25289406     0.42800
C56         C  0.13509498  0.91363156  0.19667259    -0.06800
N57         N  0.00421908  0.00167643  0.18593884    -0.25600
H58         H  0.02613926  0.90095495  0.15871927     0.07000
N59         N  0.00282893  0.89152146  0.25941394    -0.46800
H60         H  0.15694476  0.90848246  0.20537213     0.07000
C61         C  0.11433453  0.05341921  0.18139896     0.42700
C62         C  0.08709918  0.90170790  0.26232246    -0.06300
Co63       Co  0.10472321  0.97239045  0.22085206     0.73800
N64         N  0.09599257  0.91299465  0.17387039    -0.46500
C65         C  0.95516266  0.02840732  0.25889316     0.42900
N66         N  0.11632506  0.03394450  0.24648550    -0.46500
Co67       Co  0.04630985  0.96913253  0.18558000     0.73900
C68         C  0.99776500  0.02877648  0.17529346    -0.06900
C69         C  0.96352404  0.88762435  0.23681758    -0.06400
N70         N  0.07093078  0.00217187  0.25349563    -0.25900
N71         N  0.96679182  0.89616784  0.19101770    -0.46700
H72         H  0.92394040  0.01675184  0.23292796     0.06900
C73         C  0.12512115  0.03819509  0.19867705    -0.06800
Cl74       Cl  0.04194947  0.96498543  0.21851155    -0.49800
C75         C  0.12527706  0.89768787  0.17945583     0.42700
H76         H  0.05435993  0.02840715  0.27753604     0.06900
N77         N  0.08682636  0.03466589  0.17567114    -0.46500
C78         C  0.19025353  0.62059540  0.11081257     0.80300
N79         N  0.18271487  0.65373592  0.11542957    -0.78000
C80         C  0.19836859  0.66873549  0.12989559     0.82800
N81         N  0.22146273  0.65042894  0.13973248    -0.77900
C82         C  0.22915798  0.61735009  0.13522541     0.82900
N83         N  0.21345610  0.60243819  0.12074358    -0.79700
C84         C  0.77600330  0.16027751  0.32862072     0.80300
N85         N  0.75625309  0.14199756  0.34055732    -0.78000
C86         C  0.72619416  0.15505876  0.34706090     0.82800
N87         N  0.71570132  0.18672002  0.34132245    -0.77900
C88         C  0.73504048  0.20547134  0.32940975     0.82900
N89         N  0.76505667  0.19197744  0.32307814    -0.79700
C90         C  0.21173859  0.28929685  0.34990018     0.80300
N91         N  0.19914627  0.25863512  0.34369878    -0.78000
C92         C  0.21481821  0.24213795  0.32977290     0.82800
N93         N  0.24324481  0.25648737  0.32208943    -0.77900
C94         C  0.25624255  0.28698364  0.32816960     0.82900
N95         N  0.24018172  0.30363069  0.34199664    -0.79700
C96         C  0.34695938  0.16663821  0.09047088     0.80300
N97         N  0.31525976  0.15505683  0.09568065    -0.78000
C98         C  0.29647563  0.17243298  0.10818959     0.82800
N99         N  0.30988676  0.20173701  0.11561374    -0.77900
C100        C  0.34158301  0.21383936  0.11066160     0.82900
N101        N  0.36006471  0.19596377  0.09810408    -0.79700
C102        C  0.61169242  0.54287942  0.26931272     0.42600
N103        N  0.57007640  0.53301408  0.25086257     0.01400
C104        C  0.47550933  0.38112452  0.24467841    -0.06400
H105        H  0.60859203  0.36566639  0.23665424     0.06900
C106        C  0.60222179  0.44493872  0.18114748    -0.06800
Co107      Co  0.53530187  0.46584639  0.25969832     0.74200
N108        N  0.57631861  0.40898124  0.24327782    -0.26000
Co109      Co  0.53907575  0.41030007  0.22306756     0.74100
C110        C  0.62180977  0.41464386  0.18664028     0.42700
N111        N  0.57041392  0.52066914  0.19664372     0.01100
N112        N  0.57688648  0.41836570  0.20337331     0.01200
N113        N  0.47486353  0.41866245  0.26820654    -0.46800
H114        H  0.60147219  0.49178218  0.28466380     0.06900
N115        N  0.57494188  0.42993878  0.25733515     0.01400
N116        N  0.50174609  0.41264995  0.20297720     0.01200
C117        C  0.46276423  0.39790221  0.18377934     0.42800
N118        N  0.56976908  0.54195687  0.21058692    -0.25400
C119        C  0.47056564  0.50500396  0.27381463    -0.06300
N120        N  0.59451763  0.55599722  0.25490169    -0.46500
N121        N  0.48000445  0.38744716  0.19866003    -0.46700
C122        C  0.45300478  0.53716024  0.26903124     0.42600
N123        N  0.49995947  0.42602071  0.25673380     0.01400
N124        N  0.49425062  0.53679090  0.21064975    -0.25400
N125        N  0.57047720  0.50592673  0.26177636    -0.25900
N126        N  0.49521792  0.51508422  0.19685405     0.01100
H127        H  0.45638373  0.57399930  0.21942270     0.07000
H128        H  0.47060221  0.44848643  0.16748764     0.07000
N129        N  0.50110252  0.40453810  0.24287725    -0.26000
N130        N  0.57507494  0.44517510  0.19232850    -0.25600
N131        N  0.49476732  0.52878691  0.25046549     0.01400
C132        C  0.61770214  0.39649958  0.26301485     0.42800
C133        C  0.59482378  0.56586536  0.20840891    -0.06800
N134        N  0.50035046  0.43907574  0.19168987    -0.25600
H135        H  0.60720339  0.46358543  0.17050962     0.07000
N136        N  0.59881461  0.42296019  0.26963137    -0.46800
H137        H  0.59990189  0.58732607  0.21745422     0.07000
C138        C  0.44754986  0.54182179  0.19352569     0.42700
C139        C  0.59569645  0.50980878  0.27387889    -0.06300
Co140      Co  0.53231295  0.53619217  0.23065508     0.73800
N141        N  0.59465329  0.52879987  0.18474827    -0.46500
C142        C  0.45811942  0.39077716  0.26155946     0.42900
N143        N  0.46973246  0.55055691  0.25456043    -0.46500
Co144      Co  0.53514873  0.48022502  0.19396718     0.73900
C145        C  0.47642805  0.43220432  0.17900635    -0.06900
C146        C  0.60255466  0.38699768  0.24556780    -0.06400
N147        N  0.49594242  0.50203022  0.26155830    -0.25900
N148        N  0.60451550  0.39919787  0.20038112    -0.46700
H149        H  0.47045608  0.35992816  0.23547802     0.06900
C150        C  0.46502133  0.55513375  0.20962590    -0.06800
Cl151      Cl  0.53547578  0.47315342  0.22685210    -0.49800
C152        C  0.61141818  0.55689302  0.19119369     0.42700
H153        H  0.46605623  0.48761642  0.28508342     0.06900
N154        N  0.46763861  0.51699258  0.18637592    -0.46500
N155        N  0.53398850  0.96969447  0.49564603    -0.36500
N156        N  0.49741994  0.93218279  0.46741878    -0.57100
N157        N  0.53498312  0.97231128  0.43969168    -0.36500
N158        N  0.57502398  0.00634136  0.46797440    -0.57100
C159        C  0.51756415  0.94565225  0.50594571     0.27100
C160        C  0.55776430  0.98554152  0.50621913     0.27100
C161        C  0.51908708  0.94837490  0.42917844     0.27100
C162        C  0.56002602  0.98757351  0.42957232     0.27100
C163        C  0.48038942  0.91902573  0.48191932     0.35700
C164        C  0.48049400  0.92085538  0.45253995     0.35700
C165        C  0.58565315  0.02371963  0.48284950     0.35700
C166        C  0.58670864  0.02455456  0.45354390     0.35700
C167        C  0.53057801  0.94692538  0.52345129    -0.21800
C168        C  0.55608111  0.97182378  0.52358250    -0.21800
C169        C  0.53376014  0.94897168  0.41201051    -0.21800
C170        C  0.55968556  0.97352075  0.41230012    -0.21800
C171        C  0.45282466  0.89871647  0.47620141    -0.22900
C172        C  0.45283878  0.89991232  0.45764088    -0.22800
C173        C  0.60448275  0.05291112  0.47785082    -0.22900
C174        C  0.60512755  0.05345537  0.45929008    -0.22800
C175        C  0.49041870  0.92337217  0.50022438    -0.18200
C176        C  0.58009381  0.01294712  0.50092295    -0.18200
C177        C  0.58235879  0.01470558  0.43524526    -0.18200
C178        C  0.49093928  0.92686481  0.43439508    -0.18200
H179        H  0.52251981  0.93170596  0.53504025     0.14700
H180        H  0.57144929  0.97913433  0.53523133     0.14700
H181        H  0.52661611  0.93338691  0.40041109     0.14700
H182        H  0.57629388  0.98033266  0.40102346     0.14700
H183        H  0.43483178  0.88408445  0.48448683     0.13000
H184        H  0.43488698  0.88623627  0.44892933     0.13000
H185        H  0.61650768  0.07188121  0.48665838     0.13000
H186        H  0.61770591  0.07295076  0.45099280     0.13000
H187        H  0.52843472  0.97609653  0.48237480     0.26300
H188        H  0.52794093  0.97897041  0.45275138     0.26300
N189        N  0.04112149  0.45487328  0.99830113    -0.36500
N190        N  0.00879556  0.41299425  0.97035649    -0.57100
N191        N  0.05008074  0.44872708  0.94288025    -0.36500
N192        N  0.07872258  0.49402774  0.97096430    -0.57100
C193        C  0.01610567  0.43873932  0.00793995     0.27100
C194        C  0.05217964  0.48212607  0.00823443     0.27100
C195        C  0.02690100  0.43184018  0.93228185     0.27100
C196        C  0.06521192  0.47369186  0.93264364     0.27100
C197        C  0.99821706  0.39499596  0.98506297     0.35700
C198        C  0.00140572  0.39304151  0.95586438     0.35700
C199        C  0.09348219  0.50751682  0.98599296     0.35700
C200        C  0.09874363  0.50394116  0.95688073     0.35700
C201        C  0.01125881  0.45584231  0.02425840    -0.21800
C202        C  0.03413398  0.48321480  0.02446716    -0.21800
C203        C  0.02776936  0.44589433  0.91498303    -0.21800
C204        C  0.05210388  0.47214208  0.91518089    -0.21800
C205        C  0.98384736  0.36353465  0.97992707    -0.22900
C206        C  0.98576300  0.36233457  0.96137925    -0.22800
C207        C  0.12265775  0.52661275  0.98143924    -0.22900
C208        C  0.12598521  0.52439601  0.96297282    -0.22800
C209        C  0.99919011  0.40770683  0.00292871    -0.18200
C210        C  0.07998446  0.50425027  0.00366208    -0.18200
C211        C  0.09138341  0.49695890  0.93849464    -0.18200
C212        C  0.00579125  0.40344995  0.93766772    -0.18200
H213        H  0.99345136  0.44900796  0.03502083     0.14700
H214        H  0.03742758  0.50148585  0.03545330     0.14700
H215        H  0.01254330  0.43801201  0.90338534     0.14700
H216        H  0.05918276  0.48834483  0.90377257     0.14700
H217        H  0.97266366  0.34379549  0.98860435     0.13000
H218        H  0.97638125  0.34143167  0.95289667     0.13000
H219        H  0.13955395  0.54094207  0.99044702     0.13000
H220        H  0.14597322  0.53678264  0.95494852     0.13000
H221        H  0.05178777  0.44624252  0.98625482     0.26300
H222        H  0.05638552  0.44263090  0.95614532     0.26300
N223        N  0.03810025  0.45363359  0.45341535    -0.36500
N224        N  0.07517436  0.41716036  0.48223370    -0.57100
N225        N  0.03820035  0.45727861  0.50943840    -0.36500
N226        N  0.00504010  0.49736402  0.48041912    -0.57100
C227        C  0.05983116  0.43449505  0.44326224     0.27100
C228        C  0.02261101  0.47663217  0.44229748     0.27100
C229        C  0.06152366  0.44115848  0.52012657     0.27100
C230        C  0.02402004  0.48313300  0.51922226     0.27100
C231        C  0.08593954  0.39833754  0.46791594     0.35700
C232        C  0.08619884  0.40046520  0.49721863     0.35700
C233        C  0.98865757  0.50930884  0.46551047     0.35700
C234        C  0.98868893  0.51115316  0.49484952     0.35700
C235        C  0.05762054  0.44499883  0.42531553    -0.21800
C236        C  0.03403088  0.47139182  0.42469041    -0.21800
C237        C  0.06168850  0.45659556  0.53708743    -0.21800
C238        C  0.03798545  0.48304236  0.53652521    -0.21800
C239        C  0.10420035  0.36968571  0.47382041    -0.22900
C240        C  0.10428999  0.37097092  0.49237263    -0.22800
C241        C  0.96223198  0.53140879  0.47049215    -0.22900
C242        C  0.96207424  0.53238664  0.48904058    -0.22800
C243        C  0.08108877  0.40728603  0.44953330    -0.18200
C244        C  0.99768148  0.50150058  0.44740181    -0.18200
C245        C  0.99806175  0.50613679  0.51320613    -0.18200
C246        C  0.08201871  0.41236749  0.51519817    -0.18200
H247        H  0.07142234  0.43463908  0.41379456     0.14700
H248        H  0.02620128  0.48504526  0.41257497     0.14700
H249        H  0.07728555  0.44956761  0.54867307     0.14700
H250        H  0.03181903  0.50032293  0.54758816     0.14700
H251        H  0.11630716  0.34995180  0.46561367     0.13000
H252        H  0.11655177  0.35242419  0.50126020     0.13000
H253        H  0.94476147  0.54534510  0.46171037     0.13000
H254        H  0.94437929  0.54721473  0.49727547     0.13000
H255        H  0.03333327  0.45038958  0.46706949     0.26300
H256        H  0.03111159  0.45008940  0.49645465     0.26300
N257        N  0.54301359  0.96426677  0.95403335    -0.36500
N258        N  0.57774881  0.92690434  0.98272945    -0.57100
N259        N  0.54410580  0.97096126  0.00978545    -0.36500
N260        N  0.50555099  0.00436121  0.98072351    -0.57100
C261        C  0.55651619  0.93754264  0.94469796     0.27100
C262        C  0.51766975  0.97777644  0.94370596     0.27100
C263        C  0.55747615  0.94591035  0.02048526     0.27100
C264        C  0.51911273  0.98716361  0.01936484     0.27100
C265        C  0.59594861  0.91518484  0.96836255     0.35700
C266        C  0.59581930  0.91799159  0.99764046     0.35700
C267        C  0.49639614  0.02146545  0.96551441     0.35700
C268        C  0.49721925  0.02516076  0.99470088     0.35700
C269        C  0.53971188  0.93410805  0.92819653    -0.21800
C270        C  0.51512354  0.95957499  0.92756867    -0.21800
C271        C  0.54122092  0.94656102  0.03723119    -0.21800
C272        C  0.51691565  0.97254958  0.03650661    -0.21800
C273        C  0.62550736  0.89847621  0.97413991    -0.22900
C274        C  0.62541199  0.90018063  0.99270660    -0.22800
C275        C  0.48197003  0.05315137  0.96978347    -0.22900
C276        C  0.48265649  0.05560858  0.98831212    -0.22800
C277        C  0.58514967  0.91776111  0.95016641    -0.18200
C278        C  0.49854455  0.00757893  0.94794394    -0.18200
C279        C  0.49911894  0.01543565  0.01312700    -0.18200
C280        C  0.58475424  0.92339106  0.01567920    -0.18200
H281        H  0.54489751  0.91542595  0.91762628     0.14700
H282        H  0.49769031  0.96443193  0.91640173     0.14700
H283        H  0.54627168  0.92996517  0.04874838     0.14700
H284        H  0.49963834  0.97985275  0.04736617     0.14700
H285        H  0.64493962  0.88611155  0.96586353     0.13000
H286        H  0.64482929  0.88934511  0.00156915     0.13000
H287        H  0.47167173  0.07225540  0.96053231     0.13000
H288        H  0.47293443  0.07707476  0.99620187     0.13000
H289        H  0.55224003  0.97423488  0.96616942     0.26300
H290        H  0.55268156  0.97763829  0.99691402     0.26300
C291        C  0.69339128  0.75226278  0.82187131     0.80300
N292        N  0.72425456  0.76389373  0.81567853    -0.78000
C293        C  0.74085533  0.79072982  0.82364393     0.82800
N294        N  0.72614564  0.80633120  0.83811930    -0.77900
C295        C  0.69509097  0.79528852  0.84461678     0.82900
N296        N  0.67856899  0.76823777  0.83633768    -0.79700
C297        C  0.80738232  0.26720809  0.83001780     0.80300
N298        N  0.81826588  0.23578197  0.82424920    -0.78000
C299        C  0.84818398  0.22197242  0.83036312     0.82800
N300        N  0.86747271  0.24006414  0.84250308    -0.77900
C301        C  0.85721069  0.27172424  0.84841249     0.82900
N302        N  0.82718441  0.28528925  0.84201198    -0.79700
C303        C  0.37394598  0.12204904  0.84456225     0.80300
N304        N  0.38899113  0.14862363  0.83538803    -0.78000
C305        C  0.37165834  0.16516937  0.82202863     0.82800
N306        N  0.33894699  0.15522955  0.81795085    -0.77900
C307        C  0.32367731  0.12850806  0.82690595     0.82900
N308        N  0.34142730  0.11168450  0.84010141    -0.79700
C309        C  0.23945184  0.69333969  0.83503039     0.80300
N310        N  0.26566258  0.67873468  0.82555646    -0.78000
C311        C  0.27547770  0.64560719  0.82873581     0.82800
N312        N  0.25834865  0.62680338  0.84148072    -0.77900
C313        C  0.23205788  0.64086649  0.85109298     0.82900
N314        N  0.22261651  0.67416873  0.84780791    -0.79700
C315        C  0.22375113  0.26637199  0.60019325     0.80300
N316        N  0.21208423  0.23493497  0.60598092    -0.78000
C317        C  0.23156003  0.21516302  0.61726425     0.82800
N318        N  0.26290011  0.22728550  0.62268504    -0.77900
C319        C  0.27485359  0.25864411  0.61711054     0.82900
N320        N  0.25503279  0.27814824  0.60593555    -0.79700
C321        C  0.70943760  0.12219544  0.60450973     0.80300
N322        N  0.70152362  0.15473117  0.61011173    -0.78000
C323        C  0.71790935  0.16902277  0.62458890     0.82800
N324        N  0.74188007  0.15039671  0.63366641    -0.77900
C325        C  0.74993883  0.11796707  0.62817572     0.82900
N326        N  0.73380868  0.10410065  0.61359932    -0.79700
C327        C  0.45745031  0.52165844  0.75692741     0.42600
N328        N  0.47595912  0.48345943  0.73823413     0.01400
C329        C  0.63519860  0.40296108  0.73935218    -0.06400
H330        H  0.63639312  0.54043902  0.73045241     0.06900
C331        C  0.57811228  0.52248474  0.67148527    -0.06800
Co332      Co  0.54329212  0.45378945  0.75009394     0.74200
N333        N  0.59910504  0.50015140  0.73639410    -0.26000
Co334      Co  0.60405391  0.46266579  0.71615483     0.74100
C335        C  0.60883174  0.54145922  0.67762659     0.42700
N336        N  0.49709111  0.48754016  0.68481621     0.01100
N337        N  0.59776072  0.50004725  0.69622511     0.01200
N338        N  0.59512098  0.39842292  0.76151464    -0.46800
H339        H  0.50596232  0.51521626  0.77497616     0.06900
N340        N  0.57596163  0.49640170  0.74938113     0.01400
N341        N  0.60678688  0.42527956  0.69581654     0.01200
C342        C  0.62385410  0.38607123  0.67749935     0.42800
N343        N  0.47383358  0.48479942  0.69783366    -0.25400
C344        C  0.50941899  0.38429927  0.76093134    -0.06300
N345        N  0.44965868  0.50417467  0.74159661    -0.46500
N346        N  0.63243586  0.40346396  0.69273954    -0.46700
C347        C  0.48053844  0.36329823  0.75445480     0.42600
N348        N  0.58614992  0.42159926  0.74916759     0.01400
N349        N  0.48301646  0.40958365  0.69771614    -0.25400
N350        N  0.50043817  0.48580281  0.75056793    -0.25900
N351        N  0.50567983  0.41257244  0.68446414     0.01100
H352        H  0.44170271  0.37352177  0.70311535     0.07000
H353        H  0.57493465  0.39126471  0.65991269     0.07000
N354        N  0.60928098  0.42500262  0.73617921    -0.26000
N355        N  0.57343871  0.49723915  0.68379424    -0.25600
N356        N  0.48549920  0.40844669  0.73768723     0.01400
C357        C  0.60032225  0.54502939  0.75527221     0.42800
C358        C  0.44932689  0.50875272  0.69498626    -0.06800
N359        N  0.58201370  0.42284953  0.68358418    -0.25600
H360        H  0.56362381  0.52525462  0.65905045     0.07000
N361        N  0.57587098  0.52250884  0.76095227    -0.46800
H362        H  0.42661259  0.51258902  0.70326840     0.07000
C363        C  0.47627406  0.36683971  0.67800398     0.42700
C364        C  0.49122040  0.50926661  0.76295384    -0.06300
Co365      Co  0.47869673  0.44654931  0.71788416     0.73800
N366        N  0.48982094  0.51205247  0.67292175    -0.46500
C367        C  0.62572281  0.38518270  0.75621271     0.42900
N368        N  0.46677743  0.37992671  0.74005782    -0.46500
Co369      Co  0.53946581  0.45504141  0.68377965     0.73900
C370        C  0.59035877  0.39861672  0.67151181    -0.06900
C371        C  0.61591599  0.53028569  0.73894630    -0.06400
N372        N  0.51041703  0.41149937  0.74976356    -0.25900
N373        N  0.61964296  0.52568120  0.69289348    -0.46700
H374        H  0.65842594  0.40104929  0.73128330     0.06900
C375        C  0.46355433  0.38139461  0.69491724    -0.06800
Cl376      Cl  0.54138040  0.45452036  0.71696054    -0.49800
C377        C  0.46002624  0.52663199  0.67834399     0.42700
H378        H  0.52666806  0.38023043  0.77223524     0.06900
N379        N  0.50192137  0.38800525  0.67204701    -0.46500
C380        C  0.79195537  0.66195342  0.60604311     0.80300
N381        N  0.80482649  0.69150090  0.61355265    -0.78000
C382        C  0.83736508  0.70268322  0.60969099     0.82800
N383        N  0.85726015  0.68353489  0.59842838    -0.77900
C384        C  0.84508538  0.65384283  0.59092520     0.82900
N385        N  0.81239304  0.64312736  0.59477744    -0.79700
C386        C  0.36986945  0.79042358  0.60017777     0.80300
N387        N  0.38068624  0.75830851  0.60532438    -0.78000
C388        C  0.36450049  0.74125951  0.61914324     0.82800
N389        N  0.33784149  0.75670223  0.62777057    -0.77900
C390        C  0.32671779  0.78842028  0.62268689     0.82900
N391        N  0.34277545  0.80523352  0.60888618    -0.79700
C392        C  0.96149304  0.87659539  0.76853203     0.42600
N393        N  0.00265458  0.88937087  0.75046049     0.01400
C394        C  0.09654095  0.04221350  0.74962716    -0.06400
H395        H  0.96535391  0.05712306  0.73910370     0.06900
C396        C  0.97354316  0.98426112  0.68297883    -0.06800
Co397      Co  0.03727398  0.95523170  0.76153671     0.74200
N398        N  0.99727902  0.01357515  0.74571738    -0.26000
Co399      Co  0.03552800  0.01403693  0.72616991     0.74100
C400        C  0.95423829  0.01435793  0.68900929     0.42700
N401        N  0.00373968  0.90668795  0.69675489     0.01100
N402        N  0.99871304  0.00857252  0.70586217     0.01200
N403        N  0.09650493  0.00288293  0.77240130    -0.46800
H404        H  0.97045529  0.92554634  0.78567518     0.06900
N405        N  0.99771415  0.99160856  0.75939887     0.01400
N406        N  0.07394476  0.01288119  0.70664555     0.01200
C407        C  0.11513993  0.02793665  0.68884193     0.42800
N408        N  0.00412989  0.88412765  0.71017088    -0.25400
C409        C  0.10104341  0.91375372  0.77535113    -0.06300
N410        N  0.97838280  0.86573965  0.75359979    -0.46500
N411        N  0.09660620  0.03786855  0.70338582    -0.46700
C412        C  0.11844877  0.88182729  0.76993307     0.42600
N413        N  0.07282784  0.99544245  0.76010329     0.01400
N414        N  0.07918998  0.88788998  0.71067585    -0.25400
N415        N  0.00199994  0.91498728  0.76228870    -0.25900
N416        N  0.07862565  0.91085069  0.69743250     0.01100
H417        H  0.11308809  0.84530438  0.71673047     0.07000
H418        H  0.10754183  0.97911348  0.67124229     0.07000
N419        N  0.07217295  0.01802067  0.74669346    -0.26000
N420        N  0.00049129  0.98275090  0.69424608    -0.25600
N421        N  0.07793841  0.89296512  0.75097100     0.01400
C422        C  0.95460566  0.02480460  0.76478613     0.42800
C423        C  0.97998320  0.85977830  0.70704437    -0.06800
N424        N  0.07568414  0.98736380  0.69482933    -0.25600
H425        H  0.96819635  0.96636380  0.67205868     0.07000
N426        N  0.97293391  0.99780761  0.77133926    -0.46800
H427        H  0.97572091  0.83709229  0.71536457     0.07000
C428        C  0.12240339  0.87952577  0.69142155     0.42700
C429        C  0.97685934  0.90914249  0.77430144    -0.06300
Co430      Co  0.04098371  0.88774984  0.73061911     0.73800
N431        N  0.98055269  0.89889783  0.68423581    -0.46500
C432        C  0.11272300  0.03195081  0.76671270     0.42900
N433        N  0.10242289  0.87038415  0.75481776    -0.46500
Co434      Co  0.03972753  0.94688186  0.69542394     0.73900
C435        C  0.10117036  0.99443431  0.68302180    -0.06900
C436        C  0.97086927  0.03528841  0.74780665    -0.06400
N437        N  0.07642740  0.91849278  0.76282280    -0.25900
N438        N  0.97131352  0.02826510  0.70321497    -0.46700
H439        H  0.10114255  0.06462781  0.74115060     0.06900
C440        C  0.10613090  0.86677467  0.70807883    -0.06800
Cl441      Cl  0.03843716  0.95094319  0.72844619    -0.49800
C442        C  0.96413646  0.86980082  0.68980272     0.42700
H443        H  0.10503805  0.92978217  0.78718303     0.06900
N444        N  0.10393790  0.90681503  0.68566012    -0.46500
C445        C  0.19135667  0.81993454  0.67296095    -0.27500
C446        C  0.21020718  0.84284770  0.66185339     0.02100
C447        C  0.19966354  0.87759636  0.66045571     0.30200
C448        C  0.17094788  0.88893556  0.67016452    -0.19300
C449        C  0.15264871  0.86624704  0.68161756    -0.28700
C450        C  0.16289545  0.83140644  0.68288279     0.44200
C451        C  0.24083909  0.83019619  0.65190144     0.05400
O452        O  0.21746808  0.90082120  0.64983488    -0.57200
H453        H  0.16332295  0.91581760  0.66894155     0.18300
O454        O  0.14499263  0.80813823  0.69341309    -0.63900
H455        H  0.19849552  0.79288670  0.67380442     0.16800
C456        C  0.26664755  0.81128997  0.66091954     0.29000
C457        C  0.29469975  0.79836621  0.65120971    -0.24800
C458        C  0.29781938  0.80433679  0.63253205    -0.24100
C459        C  0.27256005  0.82404467  0.62356383     0.40500
C460        C  0.24417000  0.83657607  0.63322927    -0.26600
O461        O  0.26527885  0.80643130  0.67933431    -0.58500
H462        H  0.31423493  0.78373940  0.65836648     0.16100
O463        O  0.27481518  0.83037782  0.60531195    -0.59900
H464        H  0.22435760  0.85073425  0.62603637     0.14600
H465        H  0.12667661  0.79859618  0.68541764     0.46400
H466        H  0.26023233  0.78140792  0.68108666     0.41800
H467        H  0.26318642  0.81033670  0.59945164     0.45200
H468        H  0.23610522  0.91011818  0.65770526     0.36700
C469        C  0.84963148  0.77915789  0.64168988    -0.27500
C470        C  0.88560315  0.78306217  0.64129951     0.02100
C471        C  0.90526463  0.76273375  0.62942989     0.30200
C472        C  0.88901263  0.73769698  0.61869851    -0.19300
C473        C  0.85296427  0.73256600  0.61948789    -0.28700
C474        C  0.83318782  0.75452515  0.63071767     0.44200
C475        C  0.90274475  0.80720676  0.65391800     0.05400
O476        O  0.94061792  0.76566993  0.62908911    -0.57200
H477        H  0.90503840  0.72148699  0.61022438     0.18300
O478        O  0.79790163  0.75177939  0.63144989    -0.63900
H479        H  0.83429774  0.79508039  0.65066983     0.16800
C480        C  0.92024048  0.83672203  0.64747061     0.29000
C481        C  0.93910385  0.85745446  0.65946284    -0.24800
C482        C  0.94093565  0.84912887  0.67800243    -0.24100
C483        C  0.92178932  0.82045839  0.68455515     0.40500
C484        C  0.90298395  0.79969465  0.67249214    -0.26600
O485        O  0.91976710  0.84499033  0.62939560    -0.58500
H486        H  0.95315957  0.87955994  0.65408553     0.16100
O487        O  0.92154984  0.81206078  0.70259739    -0.59900
H488        H  0.88921887  0.77713896  0.67757783     0.14600
H489        H  0.78938342  0.76680376  0.62152355     0.46400
H490        H  0.89816641  0.85824463  0.62761127     0.41800
H491        H  0.90289180  0.82624614  0.70797027     0.45200
H492        H  0.94595298  0.77975014  0.61818027     0.36700
C493        C  0.36663075  0.65375726  0.64272942    -0.27500
C494        C  0.40193922  0.64595203  0.64206353     0.02100
C495        C  0.42449014  0.66846171  0.63257834     0.30200
C496        C  0.41176761  0.69855956  0.62437868    -0.19300
C497        C  0.37667793  0.70713238  0.62572663    -0.28700
C498        C  0.35394250  0.68395396  0.63470508     0.44200
C499        C  0.41504621  0.61442483  0.65132780     0.05400
O500        O  0.45923535  0.66187138  0.63171916    -0.57200
H501        H  0.42971129  0.71596662  0.61763105     0.18300
O502        O  0.31923418  0.69062646  0.63588207    -0.63900
H503        H  0.34875371  0.63635808  0.64952965     0.16800
C504        C  0.40769667  0.60774322  0.66974455     0.29000
C505        C  0.42170790  0.57856161  0.67832669    -0.24800
C506        C  0.44322698  0.55579416  0.66881339    -0.24100
C507        C  0.44968757  0.56199222  0.65026599     0.40500
C508        C  0.43561275  0.59098685  0.64170823    -0.26600
O509        O  0.38857196  0.63066512  0.67972794    -0.58500
H510        H  0.41662008  0.57443178  0.69260097     0.16100
O511        O  0.46990921  0.53998499  0.64032939    -0.59900
H512        H  0.44091964  0.59525533  0.62746176     0.14600
H513        H  0.30913122  0.68119820  0.62455410     0.46400
H514        H  0.36586335  0.61912818  0.68159745     0.41800
H515        H  0.45381427  0.52198451  0.63566614     0.45200
H516        H  0.46906753  0.67202716  0.64294213     0.36700
C517        C  0.64234613  0.60346107  0.64154478    -0.27500
C518        C  0.67808997  0.59845774  0.64321350     0.02100
C519        C  0.69075437  0.57685586  0.65701146     0.30200
C520        C  0.66778535  0.55968602  0.66854751    -0.19300
C521        C  0.63194104  0.56316053  0.66638517    -0.28700
C522        C  0.61922250  0.58581624  0.65300747     0.44200
C523        C  0.70254222  0.61564110  0.63069111     0.05400
O524        O  0.72566998  0.57292972  0.65950157    -0.57200
H525        H  0.67819673  0.54271632  0.67886577     0.18300
O526        O  0.58438873  0.59078100  0.65097277    -0.63900
H527        H  0.63240689  0.62050531  0.63113318     0.16800
C528        C  0.72447951  0.59578921  0.61968812     0.29000
C529        C  0.75214718  0.61162079  0.61069465    -0.24800
C530        C  0.75846335  0.64740583  0.61246778    -0.24100
C531        C  0.73440023  0.66769021  0.62215718     0.40500
C532        C  0.70661224  0.65169340  0.63114106    -0.26600
O533        O  0.72021736  0.56054518  0.61846265    -0.58500
H534        H  0.76975792  0.59537521  0.60315614     0.16100
O535        O  0.73803514  0.70302405  0.62316081    -0.59900
H536        H  0.68936429  0.66727696  0.63928822     0.14600
H537        H  0.57852111  0.60953543  0.65959403     0.46400
H538        H  0.70164551  0.55706473  0.60938053     0.41800
H539        H  0.74459866  0.70791458  0.63589812     0.45200
H540        H  0.73099753  0.54935409  0.65499499     0.36700
C541        C  0.72242965  0.25765476  0.64654394    -0.27500
C542        C  0.68783487  0.26790325  0.64533851     0.02100
C543        C  0.66359563  0.24605531  0.63671890     0.30200
C544        C  0.67405354  0.21448454  0.62946868    -0.19300
C545        C  0.70843829  0.20376259  0.63103259    -0.28700
C546        C  0.73285182  0.22580181  0.63944712     0.44200
C547        C  0.67662269  0.30107025  0.65325505     0.05400
O548        O  0.62937777  0.25495125  0.63572161    -0.57200
H549        H  0.65490089  0.19779155  0.62317576     0.18300
O550        O  0.76692591  0.21655607  0.64075350    -0.63900
H551        H  0.74136393  0.27441105  0.65296569     0.16800
C552        C  0.68125660  0.30832582  0.67180463     0.29000
C553        C  0.66545256  0.33737058  0.67946540    -0.24800
C554        C  0.64469455  0.35901417  0.66882185    -0.24100
C555        C  0.64241793  0.35315462  0.65001763     0.40500
C556        C  0.65829904  0.32436069  0.64240119    -0.26600
O557        O  0.69965057  0.28632956  0.68270376    -0.58500
H558        H  0.66787476  0.34186556  0.69389957     0.16100
O559        O  0.62422640  0.37498931  0.63895187    -0.59900
H560        H  0.65536845  0.31954547  0.62801847     0.14600
H561        H  0.77772505  0.22464615  0.62930503     0.46400
H562        H  0.68269514  0.26864532  0.68686999     0.41800
H563        H  0.64075618  0.39371904  0.63565730     0.45200
H564        H  0.61908320  0.24701294  0.64732666     0.36700
C565        C  0.82563504  0.06008918  0.63830255    -0.27500
C566        C  0.82843386  0.06393808  0.65714198     0.02100
C567        C  0.80386477  0.08381376  0.66652005     0.30200
C568        C  0.77814192  0.10107679  0.65692249    -0.19300
C569        C  0.77598758  0.09801596  0.63802940    -0.28700
C570        C  0.79948415  0.07674441  0.62874196     0.44200
C571        C  0.85897777  0.05002943  0.66651235     0.05400
O572        O  0.80525628  0.08710235  0.68500693    -0.57200
H573        H  0.75986536  0.11695081  0.66425625     0.18300
O574        O  0.79812815  0.07331305  0.61025707    -0.63900
H575        H  0.84467852  0.04538520  0.63085290     0.16800
C576        C  0.86915115  0.01540017  0.66417397     0.29000
C577        C  0.90004653  0.00397301  0.67182939    -0.24800
C578        C  0.92114380  0.02674334  0.68179665    -0.24100
C579        C  0.91049992  0.06115971  0.68448405     0.40500
C580        C  0.87966179  0.07256332  0.67682371    -0.26600
O581        O  0.84862887  0.99243686  0.65481774    -0.58500
H582        H  0.90737222  0.97718154  0.66995126     0.16100
O583        O  0.93039089  0.08413624  0.69416070    -0.59900
H584        H  0.87244536  0.09946684  0.67845946     0.14600
H585        H  0.81226652  0.09277145  0.60542436     0.46400
H586        H  0.86117902  0.98762067  0.64338264     0.41800
H587        H  0.94561521  0.09549761  0.68508053     0.45200
H588        H  0.79207613  0.06695038  0.68979508     0.36700
C589        C  0.18149873  0.06527494  0.65619151    -0.27500
C590        C  0.17149435  0.10015496  0.65589067     0.02100
C591        C  0.14433831  0.11124855  0.66705614     0.30200
C592        C  0.12691690  0.08747512  0.67802388    -0.19300
C593        C  0.13593640  0.05231460  0.67793755    -0.28700
C594        C  0.16360373  0.04121094  0.66703032     0.44200
C595        C  0.18925708  0.12540523  0.64408395     0.05400
O596        O  0.13442104  0.14531943  0.66718025    -0.57200
H597        H  0.10567870  0.09651409  0.68630177     0.18300
O598        O  0.17398506  0.00729219  0.66733906    -0.63900
H599        H  0.20280471  0.05667770  0.64783483     0.16800
C600        C  0.22261436  0.13728743  0.64828644     0.29000
C601        C  0.23666788  0.16549057  0.63885661    -0.24800
C602        C  0.21783360  0.18227004  0.62508292    -0.24100
C603        C  0.18520435  0.16855184  0.62012344     0.40500
C604        C  0.17110784  0.14057470  0.62973935    -0.26600
O605        O  0.24055912  0.12322940  0.66249649    -0.58500
H606        H  0.26186313  0.17504345  0.64293977     0.16100
O607        O  0.16609241  0.18304537  0.60647751    -0.59900
H608        H  0.14536701  0.13137832  0.62639203     0.14600
H609        H  0.16498151  0.99699369  0.65596201     0.46400
H610        H  0.25604010  0.10582810  0.65694535     0.41800
H611        H  0.17350630  0.17094596  0.59529967     0.45200
H612        H  0.14926340  0.15662868  0.67642440     0.36700
C613        C  0.34800760  0.31864939  0.63162046    -0.27500
C614        C  0.37265216  0.29488889  0.63781126     0.02100
C615        C  0.36521850  0.25919124  0.63684592     0.30200
C616        C  0.33346818  0.24780454  0.62991216    -0.19300
C617        C  0.30871667  0.27158297  0.62371102    -0.28700
C618        C  0.31640919  0.30734529  0.62452033     0.44200
C619        C  0.40446397  0.30810772  0.64666783     0.05400
O620        O  0.38861503  0.23525800  0.64286988    -0.57200
H621        H  0.32824211  0.22019880  0.62941149     0.18300
O622        O  0.29250581  0.33160571  0.61948245    -0.63900
H623        H  0.35278515  0.34624634  0.63284210     0.16800
C624        C  0.42532502  0.33354493  0.63826852     0.29000
C625        C  0.45128860  0.35043776  0.64818885    -0.24800
C626        C  0.45622341  0.34274119  0.66657376    -0.24100
C627        C  0.43739725  0.31529833  0.67450756     0.40500
C628        C  0.41178494  0.29810817  0.66452984    -0.26600
O629        O  0.41998923  0.34245040  0.62048453    -0.58500
H630        H  0.46582096  0.37125197  0.64183299     0.16100
O631        O  0.44347398  0.30561199  0.69211800    -0.59900
H632        H  0.39619095  0.27841203  0.67116487     0.14600
H633        H  0.29916922  0.33865489  0.60702739     0.46400
H634        H  0.40980075  0.36596474  0.62077764     0.41800
H635        H  0.42250457  0.31232453  0.69897195     0.45200
H636        H  0.40183513  0.22835443  0.63195677     0.36700
C637        C  0.34913954  0.63205666  0.79517290    -0.27500
C638        C  0.35452836  0.59646462  0.79699106     0.02100
C639        C  0.33429534  0.57705479  0.80912394     0.30200
C640        C  0.30901873  0.59344401  0.81948161    -0.19300
C641        C  0.30316419  0.62929613  0.81776180    -0.28700
C642        C  0.32355577  0.64855165  0.80532435     0.44200
C643        C  0.38139341  0.57959586  0.78616833     0.05400
O644        O  0.33940535  0.54210776  0.81111265    -0.57200
H645        H  0.29382459  0.57782980  0.82877280     0.18300
O646        O  0.31931794  0.68355024  0.80315225    -0.63900
H647        H  0.36476948  0.64706909  0.78579067     0.16800
C648        C  0.37327549  0.56436421  0.76945753     0.29000
C649        C  0.39863550  0.54641388  0.75990784    -0.24800
C650        C  0.43238951  0.54348695  0.76680726    -0.24100
C651        C  0.44068036  0.56023068  0.78329169     0.40500
C652        C  0.41510430  0.57787432  0.79287922    -0.26600
O653        O  0.34034417  0.56595185  0.76265838    -0.58500
H654        H  0.39155964  0.53414532  0.74723577     0.16100
O655        O  0.47331129  0.55916121  0.79043187    -0.59900
H656        H  0.42147515  0.58991572  0.80571962     0.14600
H657        H  0.30411546  0.68602164  0.79241979     0.46400
H658        H  0.33950848  0.58802651  0.75578177     0.41800
H659        H  0.48565110  0.57931772  0.78506250     0.45200
H660        H  0.32446881  0.53105241  0.80182736     0.36700
C661        C  0.23233893  0.78034152  0.81135939    -0.27500
C662        C  0.19718761  0.78741728  0.81371997     0.02100
C663        C  0.17716440  0.76600168  0.82510831     0.30200
C664        C  0.19184104  0.73653970  0.83297919    -0.19300
C665        C  0.22654325  0.72800987  0.82966717    -0.28700
C666        C  0.24720076  0.75122057  0.81943054     0.44200
C667        C  0.18066979  0.81440550  0.80253802     0.05400
O668        O  0.14249810  0.77191947  0.82728602    -0.57200
H669        H  0.17537429  0.71930010  0.84078623     0.18300
O670        O  0.28164615  0.74510694  0.81662131    -0.63900
H671        H  0.24804434  0.79688801  0.80274500     0.16800
C672        C  0.16464079  0.84331249  0.81039353     0.29000
C673        C  0.14567081  0.86612352  0.79954723    -0.24800
C674        C  0.14231523  0.86037790  0.78081069    -0.24100
C675        C  0.15989908  0.83229249  0.77288625     0.40500
C676        C  0.17905517  0.80974687  0.78373427    -0.26600
O677        O  0.16658330  0.84892347  0.82870602    -0.58500
H678        H  0.13254945  0.88752248  0.80597782     0.16100
O679        O  0.15848355  0.82656588  0.75455617    -0.59900
H680        H  0.19162115  0.78772658  0.77752132     0.14600
H681        H  0.29354371  0.75528649  0.82727492     0.46400
H682        H  0.18838628  0.86211439  0.83052462     0.41800
H683        H  0.14118148  0.80773752  0.75292727     0.45200
H684        H  0.14035267  0.78317352  0.83930156     0.36700
C685        C  0.43901413  0.21874785  0.79737556    -0.27500
C686        C  0.41927126  0.24701513  0.79165967     0.02100
C687        C  0.38394093  0.24843182  0.79601559     0.30200
C688        C  0.36862606  0.22145748  0.80583606    -0.19300
C689        C  0.38838897  0.19322485  0.81170262    -0.28700
C690        C  0.42380739  0.19187249  0.80730784     0.44200
C691        C  0.43602649  0.27560171  0.78173700     0.05400
O692        O  0.36436443  0.27634288  0.79098691    -0.57200
H693        H  0.34139012  0.22290742  0.80915724     0.18300
O694        O  0.44364382  0.16416283  0.81235700    -0.63900
H695        H  0.46625656  0.21749861  0.79404110     0.16800
C696        C  0.46208616  0.29541690  0.79004599     0.29000
C697        C  0.47686832  0.32334101  0.78082320    -0.24800
C698        C  0.46579746  0.33220549  0.76329347    -0.24100
C699        C  0.44007017  0.31183524  0.75484121     0.40500
C700        C  0.42537352  0.28370730  0.76409984    -0.26600
O701        O  0.47273213  0.28814059  0.80735684    -0.58500
H702        H  0.49642335  0.33849850  0.78772578     0.16100
O703        O  0.42954631  0.31874289  0.73747906    -0.59900
H704        H  0.40550880  0.26826190  0.75755174     0.14600
H705        H  0.44088797  0.14700720  0.80245916     0.46400
H706        H  0.45683521  0.30116956  0.81534914     0.41800
H707        H  0.40795771  0.33222574  0.73878191     0.45200
H708        H  0.36783636  0.29372227  0.80071739     0.36700
C709        C  0.23402395  0.12641636  0.80646760    -0.27500
C710        C  0.22667064  0.09078156  0.80678939     0.02100
C711        C  0.25019787  0.06799172  0.81506704     0.30200
C712        C  0.28100235  0.08093298  0.82239578    -0.19300
C713        C  0.28906046  0.11638426  0.82134955    -0.28700
C714        C  0.26490263  0.13930047  0.81365038     0.44200
C715        C  0.19596146  0.07751628  0.79703741     0.05400
O716        O  0.24474018  0.03281163  0.81462082    -0.57200
H717        H  0.29943777  0.06286582  0.82802874     0.18300
O718        O  0.27152197  0.17422576  0.81266514    -0.63900
H719        H  0.21606060  0.14424271  0.80022729     0.16800
C720        C  0.17206784  0.05503572  0.80542934     0.29000
C721        C  0.14498828  0.04074907  0.79535619    -0.24800
C722        C  0.14068228  0.04917926  0.77696944    -0.24100
C723        C  0.16377860  0.07287026  0.76878398     0.40500
C724        C  0.19112385  0.08680210  0.77882749    -0.26600
O725        O  0.17494473  0.04681292  0.82344352    -0.58500
H726        H  0.12723733  0.02300951  0.80201223     0.16100
O727        O  0.16064430  0.08193487  0.75090678    -0.59900
H728        H  0.20926795  0.10417821  0.77219469     0.14600
H729        H  0.26240672  0.18391945  0.82413572     0.46400
H730        H  0.16317339  0.06583156  0.82997448     0.41800
H731        H  0.17436099  0.06457438  0.74415784     0.45200
H732        H  0.24114823  0.02574274  0.82741221     0.36700
C733        C  0.90584668  0.14798996  0.81521161    -0.27500
C734        C  0.88228798  0.12736351  0.80555667     0.02100
C735        C  0.84730972  0.13668669  0.80502490     0.30200
C736        C  0.83643052  0.16686954  0.81375566    -0.19300
C737        C  0.86015323  0.18842323  0.82292471    -0.28700
C738        C  0.89512301  0.17829593  0.82386175     0.44200
C739        C  0.89530989  0.09752237  0.79517988     0.05400
O740        O  0.82358932  0.11614381  0.79623157    -0.57200
H741        H  0.80934368  0.17362397  0.81307459     0.18300
O742        O  0.91946702  0.19868219  0.83224805    -0.63900
H743        H  0.93295763  0.14113462  0.81553654     0.16800
C744        C  0.89414708  0.09760673  0.77613786     0.29000
C745        C  0.91145274  0.07201740  0.76641068    -0.24800
C746        C  0.93061479  0.04642699  0.77540780    -0.24100
C747        C  0.92968544  0.04496858  0.79449579     0.40500
C748        C  0.91240702  0.07067899  0.80422946    -0.26600
O749        O  0.87795090  0.12373818  0.76689315    -0.58500
H750        H  0.91119197  0.07328153  0.75175438     0.16100
O751        O  0.94764997  0.02020687  0.80383338    -0.59900
H752        H  0.91340992  0.07041968  0.81889951     0.14600
H753        H  0.92203902  0.18870386  0.84455886     0.46400
H754        H  0.89561956  0.14231349  0.76556182     0.41800
H755        H  0.93115652  0.00063258  0.80535875     0.45200
H756        H  0.81686640  0.12931456  0.78525379     0.36700
C757        C  0.72281091  0.27673120  0.80427724    -0.27500
C758        C  0.72051828  0.31277633  0.80288058     0.02100
C759        C  0.74489177  0.33383954  0.81180535     0.30200
C760        C  0.77205442  0.31872098  0.82145711    -0.19300
C761        C  0.77571663  0.28250625  0.82204965    -0.28700
C762        C  0.75018501  0.26147963  0.81370377     0.44200
C763        C  0.69493053  0.32823620  0.79054328     0.05400
O764        O  0.74275513  0.36926064  0.81080293    -0.57200
H765        H  0.79114265  0.33546186  0.82775565     0.18300
O766        O  0.75164447  0.22600386  0.81468733    -0.63900
H767        H  0.70401720  0.26036014  0.79747933     0.16800
C768        C  0.70458800  0.33710467  0.77278966     0.29000
C769        C  0.68139507  0.35444159  0.76152878    -0.24800
C770        C  0.64816578  0.36308471  0.76768286    -0.24100
C771        C  0.63783454  0.35213221  0.78518721     0.40500
C772        C  0.66132639  0.33507140  0.79652187    -0.26600
O773        O  0.73716539  0.32997177  0.76654486    -0.58500
H774        H  0.68993890  0.36175931  0.74809777     0.16100
O775        O  0.60536177  0.35900069  0.79164583    -0.59900
H776        H  0.65355980  0.32781652  0.81012079     0.14600
H777        H  0.76031991  0.21840748  0.80269205     0.46400
H778        H  0.73581625  0.30587789  0.76192165     0.41800
H779        H  0.59096285  0.33891539  0.78786705     0.45200
H780        H  0.75698279  0.37591568  0.80015645     0.36700
C781        C  0.68137178  0.67187888  0.79308685    -0.27500
C782        C  0.64540361  0.66806031  0.79290062     0.02100
C783        C  0.62501198  0.69099489  0.80314158     0.30200
C784        C  0.64078728  0.71785884  0.81301120    -0.19300
C785        C  0.67686412  0.72230047  0.81270652    -0.28700
C786        C  0.69713359  0.69847432  0.80283996     0.44200
C787        C  0.63019042  0.63889909  0.78254449     0.05400
O788        O  0.58971322  0.68765146  0.80339243    -0.57200
H789        H  0.62473127  0.73572062  0.82050874     0.18300
O790        O  0.73253370  0.70065517  0.80266189    -0.63900
H791        H  0.69748966  0.65374555  0.78579765     0.16800
C792        C  0.63892467  0.63365435  0.76421731     0.29000
C793        C  0.62841266  0.60331631  0.75536721    -0.24800
C794        C  0.60920182  0.57782554  0.76455296    -0.24100
C795        C  0.59923233  0.58382109  0.78268714     0.40500
C796        C  0.60975221  0.61415948  0.79151356    -0.26600
O797        O  0.65737630  0.65831942  0.75482401    -0.58500
H798        H  0.63560299  0.59972028  0.74131961     0.16100
O799        O  0.58005900  0.55983294  0.79212858    -0.59900
H800        H  0.60312355  0.61767373  0.80565380     0.14600
H801        H  0.74017916  0.68746896  0.81346495     0.46400
H802        H  0.68064067  0.64828364  0.75296494     0.41800
H803        H  0.59722096  0.54475401  0.79817467     0.45200
H804        H  0.58148739  0.70177004  0.79304282     0.36700
C805        C  0.82058342  0.84479498  0.81264154    -0.27500
C806        C  0.83835637  0.82219998  0.80111728     0.02100
C807        C  0.82485972  0.78903315  0.79767244     0.30200
C808        C  0.79343704  0.77908146  0.80540651    -0.19300
C809        C  0.77486997  0.80193313  0.81655762    -0.28700
C810        C  0.78893211  0.83500488  0.82028718     0.44200
C811        C  0.87079435  0.83375935  0.79258815     0.05400
O812        O  0.84284391  0.76583403  0.78726641    -0.57200
H813        H  0.78366872  0.75327008  0.80261334     0.18300
O814        O  0.77186017  0.85819019  0.83108233    -0.63900
H815        H  0.83094728  0.87042475  0.81538069     0.16800
C816        C  0.87382350  0.83576609  0.77359520     0.29000
C817        C  0.90444357  0.84802104  0.76580534    -0.24800
C818        C  0.93165771  0.85940713  0.77681392    -0.24100
C819        C  0.92886326  0.85691790  0.79577868     0.40500
C820        C  0.89850241  0.84412019  0.80355851    -0.26600
O821        O  0.84655685  0.82711289  0.76259099    -0.58500
H822        H  0.90628588  0.85026205  0.75119701     0.16100
O823        O  0.95555508  0.86716772  0.80680589    -0.59900
H824        H  0.89640968  0.84256226  0.81817974     0.14600
H825        H  0.75708507  0.87168585  0.82271069     0.46400
H826        H  0.83255401  0.84847126  0.76165822     0.41800
H827        H  0.97015670  0.84632581  0.80824650     0.45200
H828        H  0.82945656  0.76346770  0.77587500     0.36700
C829        C  0.42793536  0.03333314  0.91531366    -0.27500
C830        C  0.44614975  0.05511268  0.90331321     0.02100
C831        C  0.48161917  0.06163515  0.90640448     0.30200
C832        C  0.49810926  0.04673503  0.92128728    -0.19300
C833        C  0.47986861  0.02485893  0.93306568    -0.28700
C834        C  0.44471883  0.01784933  0.92996655     0.44200
C835        C  0.42781001  0.07169103  0.88797425     0.05400
O836        O  0.50053506  0.08215764  0.89484040    -0.57200
H837        H  0.52537565  0.05173721  0.92349379     0.18300
O838        O  0.42669476  0.99581473  0.94115719    -0.63900
H839        H  0.40058329  0.02848229  0.91341631     0.16800
C840        C  0.40601363  0.05245224  0.87636059     0.29000
C841        C  0.38844038  0.06916863  0.86229049    -0.24800
C842        C  0.39274150  0.10487822  0.85938647    -0.24100
C843        C  0.41488958  0.12395837  0.87083896     0.40500
C844        C  0.43181148  0.10744864  0.88508614    -0.26600
O845        O  0.40298015  0.01714748  0.87815364    -0.58500
H846        H  0.37190361  0.05404104  0.85342630     0.16100
O847        O  0.41975313  0.15892025  0.86846084    -0.59900
H848        H  0.44783352  0.12284182  0.89407328     0.14600
H849        H  0.42960287  0.97247422  0.93578005     0.46400
H850        H  0.37908199  0.01291293  0.88253765     0.41800
H851        H  0.40121366  0.17003338  0.87564218     0.45200
H852        H  0.50865129  0.06633674  0.88517509     0.36700
C853        C  0.63722871  0.89973198  0.90786279    -0.27500
C854        C  0.63439694  0.86355170  0.90661547     0.02100
C855        C  0.61725774  0.84493162  0.92040675     0.30200
C856        C  0.60237472  0.86267440  0.93497052    -0.19300
C857        C  0.60430744  0.89891949  0.93588019    -0.28700
C858        C  0.62230624  0.91742739  0.92236041     0.44200
C859        C  0.64963516  0.84563132  0.89086606     0.05400
O860        O  0.61576711  0.80940445  0.91994825    -0.57200
H861        H  0.58867351  0.84824448  0.94536218     0.18300
O862        O  0.62449482  0.95291140  0.92295438    -0.63900
H863        H  0.65051059  0.91430972  0.89737436     0.16800
C864        C  0.62897518  0.82621808  0.87884945     0.29000
C865        C  0.64407724  0.80959187  0.86399985    -0.30800
C866        C  0.67975868  0.81251928  0.86067476    -0.24100
C867        C  0.70031389  0.83232241  0.87275336     0.40500
C868        C  0.68513927  0.84876577  0.88758890    -0.26600
O869        O  0.59390545  0.82386208  0.88131689    -0.58500
H870        H  0.62765951  0.79491915  0.85488222     0.16100
O871        O  0.73533216  0.83567182  0.87035730    -0.59900
H872        H  0.70125635  0.86378271  0.89671517     0.14600
H873        H  0.64425350  0.95804904  0.93109179     0.46400
H874        H  0.58435921  0.84486015  0.87545615     0.41800
H875        H  0.74553058  0.81584834  0.87698640     0.45200
H876        H  0.59144015  0.80355269  0.91694572     0.36700
C877        C  0.15945744  0.29594728  0.56451426    -0.27500
C878        C  0.16204992  0.33215242  0.56606406     0.02100
C879        C  0.18447531  0.34649394  0.57911036     0.30200
C880        C  0.20437387  0.32471396  0.59007923    -0.19300
C881        C  0.20211947  0.28849158  0.58841232    -0.28700
C882        C  0.17926025  0.27415953  0.57552324     0.44200
C883        C  0.14135758  0.35453167  0.55388382     0.05400
O884        O  0.18579674  0.38167978  0.58181008    -0.57200
H885        H  0.22124832  0.33627387  0.60013968     0.18300
O886        O  0.17646669  0.23896006  0.57332329    -0.63900
H887        H  0.14237612  0.28452016  0.55450614     0.16800
C888        C  0.15734601  0.37981768  0.54282390     0.29000
C889        C  0.13747425  0.39965716  0.53092091    -0.24800
C890        C  0.10172908  0.39417984  0.52954884    -0.24100
C891        C  0.08567360  0.36897138  0.54050678     0.40500
C892        C  0.10543198  0.34946877  0.55264743    -0.26600
O893        O  0.19251870  0.38440301  0.54301279    -0.58500
H894        H  0.15011911  0.41852687  0.52223422     0.16100
O895        O  0.05083787  0.36274573  0.53913716    -0.59900
H896        H  0.09276942  0.32999369  0.56095172     0.14600
H897        H  0.19426227  0.23295544  0.56419887     0.46400
H898        H  0.20154496  0.36768712  0.53400722     0.41800
H899        H  0.04838057  0.34551336  0.52925460     0.45200
H900        H  0.20949831  0.38897423  0.57828572     0.36700
C901        C  0.92592281  0.61011019  0.57337310    -0.27500
C902        C  0.91256217  0.58964543  0.55935106     0.02100
C903        C  0.87682611  0.59018633  0.55572288     0.30200
C904        C  0.85497750  0.61098808  0.56615050    -0.19300
C905        C  0.86841091  0.63185817  0.58007672    -0.28700
C906        C  0.90423048  0.63097494  0.58374443     0.44200
C907        C  0.93623486  0.56797922  0.54855907     0.05400
O908        O  0.86310593  0.57083454  0.54187138    -0.57200
H909        H  0.82757530  0.61123621  0.56314568     0.18300
O910        O  0.91832838  0.64982767  0.59767868    -0.63900
H911        H  0.95330410  0.60958103  0.57643111     0.16800
C912        C  0.96419687  0.58303304  0.53909395     0.29000
C913        C  0.98554326  0.56231631  0.52840101    -0.24800
C914        C  0.97918231  0.52662142  0.52692801    -0.24100
C915        C  0.95209397  0.51135213  0.53688481     0.40500
C916        C  0.93071084  0.53204735  0.54757383    -0.26600
O917        O  0.97008512  0.61811133  0.53970735    -0.58500
H918        H  0.00621019  0.57425867  0.52063572     0.16100
O919        O  0.94526176  0.47653851  0.53546587    -0.59900
H920        H  0.90950575  0.52012802  0.55493877     0.14600
H921        H  0.91600743  0.63482008  0.60853479     0.46400
H922        H  0.95597367  0.62789747  0.52975033     0.41800
H923        H  0.95933717  0.46553737  0.54507979     0.45200
H924        H  0.86573525  0.58545175  0.53089058     0.36700
C925        C  0.18550807  0.56463979  0.87279901    -0.27500
C926        C  0.17314070  0.57942829  0.88887103     0.02100
C927        C  0.18137509  0.61426527  0.89281062     0.30200
C928        C  0.20066055  0.63405074  0.88040717    -0.19300
C929        C  0.21254176  0.61936049  0.86419722    -0.28700
C930        C  0.20525582  0.58417796  0.86057895     0.44200
C931        C  0.15157607  0.55809730  0.90127674     0.05400
O932        O  0.17199239  0.62861000  0.90908391    -0.57200
H933        H  0.20671289  0.66082771  0.88357780     0.18300
O934        O  0.21573718  0.56910842  0.84469149    -0.63900
H935        H  0.17934205  0.53791492  0.86956202     0.16800
C936        C  0.11845516  0.56907103  0.90671086     0.29000
C937        C  0.09873502  0.54859678  0.91853145    -0.24800
C938        C  0.11123776  0.51671176  0.92470780    -0.24100
C939        C  0.14372970  0.50512060  0.91885472     0.40500
C940        C  0.16373792  0.52581963  0.90726326    -0.26600
O941        O  0.10500710  0.59960966  0.90044873    -0.58500
H942        H  0.07369273  0.55765143  0.92299365     0.16100
O943        O  0.15659300  0.47419978  0.92494683    -0.59900
H944        H  0.18901100  0.51686880  0.90311109     0.14600
H945        H  0.23676059  0.55585485  0.84786223     0.46400
H946        H  0.09489332  0.59394111  0.88846283     0.41800
H947        H  0.14915036  0.45681612  0.91583924     0.45200
H948        H  0.15526438  0.64711280  0.90607821     0.36700
C949        C  0.92873926  0.36887519  0.91151335    -0.27500
C950        C  0.94448738  0.34653069  0.89905738     0.02100
C951        C  0.98081713  0.34373743  0.89891433     0.30200
C952        C  0.00076767  0.36304952  0.91121640    -0.19300
C953        C  0.98484123  0.38496278  0.92379923    -0.28700
C954        C  0.94860102  0.38797869  0.92380088     0.44200
C955        C  0.92252843  0.32708779  0.88605674     0.05400
O956        O  0.99699758  0.32326147  0.88635776    -0.57200
H957        H  0.02864820  0.36065818  0.91108558     0.18300
O958        O  0.93235304  0.40908561  0.93603334    -0.63900
H959        H  0.90085942  0.37129285  0.91178906     0.16800
C960        C  0.92311028  0.29065086  0.88520070     0.29000
C961        C  0.90186958  0.27307419  0.87285199    -0.24800
C962        C  0.87916580  0.29124312  0.86143563    -0.24100
C963        C  0.87836758  0.32776484  0.86249856     0.40500
C964        C  0.89981632  0.34528890  0.87476156    -0.26600
O965        O  0.94383244  0.27192289  0.89660624    -0.58500
H966        H  0.90279336  0.24502554  0.87244143     0.16100
O967        O  0.85717126  0.34674207  0.85145994    -0.59900
H968        H  0.89898606  0.37333658  0.87532744     0.14600
H969        H  0.93350387  0.43262017  0.93064102     0.46400
H970        H  0.92984595  0.26822110  0.90771109     0.41800
H971        H  0.87086112  0.35109507  0.84031468     0.45200
H972        H  0.00669996  0.30359823  0.89331769     0.36700
C973        C  0.60165629  0.06790690  0.54179528    -0.27500
C974        C  0.63733417  0.06234234  0.54344254     0.02100
C975        C  0.65426900  0.04112664  0.53073537     0.30200
C976        C  0.63539910  0.02537141  0.51685622    -0.19300
C977        C  0.59977932  0.03088677  0.51532818    -0.28700
C978        C  0.58294507  0.05260602  0.52773430     0.44200
C979        C  0.65637149  0.07799944  0.55875052     0.05400
O980        O  0.68918491  0.03558092  0.53179915    -0.57200
H981        H  0.64848255  0.00868909  0.50728890     0.18300
O982        O  0.54809538  0.05832546  0.52642771    -0.63900
H983        H  0.58818799  0.08377057  0.55158905     0.16800
C984        C  0.65394769  0.11363513  0.56253824     0.29000
C985        C  0.67121104  0.12758869  0.57747798    -0.24800
C986        C  0.69147757  0.10654371  0.58876920    -0.24100
C987        C  0.69401072  0.07077372  0.58481863     0.40500
C988        C  0.67648816  0.05689275  0.56996014    -0.26600
O989        O  0.63491296  0.13511358  0.55166056    -0.58500
H990        H  0.66891037  0.15509850  0.58008494     0.16100
O991        O  0.71327651  0.04892359  0.59537586    -0.59900
H992        H  0.67817547  0.02931646  0.56736395     0.14600
H993        H  0.54582624  0.07815060  0.51795945     0.46400
H994        H  0.65066039  0.14178981  0.54162221     0.41800
H995        H  0.69703653  0.03991026  0.60468403     0.45200
H996        H  0.69991898  0.05469759  0.52472999     0.36700
C997        C  0.46983552  0.85473782  0.53567238    -0.27500
C998        C  0.43687526  0.86491069  0.54152310     0.02100
C999        C  0.42128927  0.89399516  0.53339227     0.30200
C1000       C  0.43893904  0.91279346  0.51999606    -0.19300
C1001       C  0.47193540  0.90269335  0.51428922    -0.28700
C1002       C  0.48729526  0.87331944  0.52211812     0.44200
C1003       C  0.41941677  0.84554972  0.55639178     0.05400
O1004       O  0.38874906  0.90415702  0.53837728    -0.57200
H1005       H  0.42684019  0.93527108  0.51396998     0.18300
O1006       O  0.51927328  0.86256895  0.51648101    -0.63900
H1007       H  0.48231503  0.83259924  0.54181840     0.16800
C1008       C  0.41532944  0.80922243  0.55570809     0.29000
C1009       C  0.39984454  0.79144296  0.57019317    -0.24800
C1010       C  0.38746889  0.80947256  0.58534795    -0.24100
C1011       C  0.39145931  0.84584546  0.58599062     0.40500
C1012       C  0.40737736  0.86350777  0.57163899    -0.26600
O1013       O  0.42592131  0.79089249  0.54082150    -0.58500
H1014       H  0.39675331  0.76355774  0.56937471     0.16100
O1015       O  0.38042025  0.86439899  0.60071804    -0.59900
H1016       H  0.41076179  0.89135436  0.57254324     0.14600
H1017       H  0.53540918  0.86918802  0.52633793     0.46400
H1018       H  0.40644521  0.79225119  0.53212952     0.41800
H1019       H  0.40025691  0.86459293  0.60921912     0.45200
H1020       H  0.37279208  0.88987385  0.53093235     0.36700
C1021       C  0.41744012  0.13669177  0.05805829    -0.27500
C1022       C  0.41032664  0.10098279  0.05713006     0.02100
C1023       C  0.38179433  0.08742105  0.06666225     0.30200
C1024       C  0.36110249  0.10934431  0.07703249    -0.19300
C1025       C  0.36830038  0.14503511  0.07823109    -0.28700
C1026       C  0.39661345  0.15872709  0.06841980     0.44200
C1027       C  0.43298554  0.07794719  0.04638250     0.05400
O1028       O  0.37526195  0.05239893  0.06683137    -0.57200
H1029       H  0.33993072  0.09795998  0.08462769     0.18300
O1030       O  0.40431557  0.19346591  0.06887900    -0.63900
H1031       H  0.43918121  0.14752294  0.05066594     0.16800
C1032       C  0.41913458  0.05639780  0.03277325     0.29000
C1033       C  0.44074286  0.03441301  0.02301083    -0.24800
C1034       C  0.47658057  0.03455538  0.02597494    -0.24100
C1035       C  0.49057520  0.05619338  0.03947564     0.40500
C1036       C  0.46876129  0.07750684  0.04968107    -0.26600
O1037       O  0.38469391  0.05754046  0.02844437    -0.58500
H1038       H  0.42973950  0.01835951  0.01241280     0.16100
O1039       O  0.52553177  0.05728246  0.04248062    -0.59900
H1040       H  0.47981045  0.09399482  0.06007494     0.14600
H1041       H  0.38986185  0.20398140  0.05927137     0.46400
H1042       H  0.38267978  0.07641017  0.01938044     0.41800
H1043       H  0.53465674  0.07465543  0.03376277     0.45200
H1044       H  0.35281046  0.04931073  0.06053731     0.36700
C1045       C  0.40933330  0.32018335  0.16930428    -0.27500
C1046       C  0.40646047  0.32573023  0.15061282     0.02100
C1047       C  0.41994138  0.35639249  0.14298903     0.30200
C1048       C  0.43693665  0.38064103  0.15403139    -0.19300
C1049       C  0.44119258  0.37437277  0.17265931    -0.28700
C1050       C  0.42670399  0.34405050  0.18029961     0.44200
C1051       C  0.38942772  0.29899730  0.13934873     0.05400
O1052       O  0.41595603  0.36312414  0.12485821    -0.57200
H1053       H  0.44766069  0.40379214  0.14785481     0.18300
O1054       O  0.42897591  0.33767231  0.19855194    -0.63900
H1055       H  0.39865154  0.29683832  0.17534477     0.16800
C1056       C  0.40800635  0.28043200  0.12621838     0.29000
C1057       C  0.39185144  0.25358709  0.11660153    -0.24800
C1058       C  0.35716791  0.24434665  0.12005431    -0.24100
C1059       C  0.33859988  0.26348974  0.13317203     0.40500
C1060       C  0.35484325  0.29032434  0.14269601    -0.26600
O1061       O  0.44228111  0.28756371  0.12310535    -0.58500
H1062       H  0.40694505  0.23940699  0.10675930     0.16100
O1063       O  0.30483577  0.25577707  0.13724565    -0.59900
H1064       H  0.34042244  0.30427648  0.15291569     0.14600
H1065       H  0.44803003  0.32079764  0.19989915     0.46400
H1066       H  0.45503541  0.27353293  0.13212864     0.41800
H1067       H  0.29093681  0.27066624  0.12910993     0.45200
H1068       H  0.43895303  0.35897009  0.11936698     0.36700
C1069       C  0.10493743  0.34490232  0.41214628    -0.27500
C1070       C  0.13934749  0.35475570  0.40872346     0.02100
C1071       C  0.15481444  0.38102170  0.41925289     0.30200
C1072       C  0.13566328  0.39759242  0.43268471    -0.19300
C1073       C  0.10120507  0.38806499  0.43586431    -0.28700
C1074       C  0.08590511  0.36130393  0.42570907     0.44200
C1075       C  0.15867422  0.33797135  0.39392282     0.05400
O1076       O  0.18856633  0.39073057  0.41646649    -0.57200
H1077       H  0.14755444  0.41814235  0.44055571     0.18300
O1078       O  0.05218807  0.35168043  0.42867068    -0.63900
H1079       H  0.09267511  0.32485842  0.40408053     0.16800
C1080       C  0.16193350  0.30170957  0.39326274     0.29000
C1081       C  0.17933227  0.28628457  0.37883592    -0.24800
C1082       C  0.19425310  0.30661339  0.36507885    -0.24100
C1083       C  0.19129886  0.34294911  0.36582233     0.40500
C1084       C  0.17355531  0.35835994  0.38018018    -0.26600
O1085       O  0.14837754  0.28114545  0.40670901    -0.58500
H1086       H  0.18150878  0.25830407  0.37851508     0.16100
O1087       O  0.20479621  0.36356468  0.35238112    -0.59900
H1088       H  0.17087426  0.38629375  0.38043039     0.14600
H1089       H  0.05303812  0.33482353  0.43880999     0.46400
H1090       H  0.16651153  0.28027000  0.41618379     0.41800
H1091       H  0.18638303  0.36501516  0.34307746     0.45200
H1092       H  0.20242503  0.37403423  0.42359124     0.36700
C1093       C  0.33905160  0.29605041  0.30130566    -0.27500
C1094       C  0.34249850  0.33209503  0.30019535     0.02100
C1095       C  0.31804497  0.35344843  0.30873118     0.30200
C1096       C  0.29036547  0.33846653  0.31818103    -0.19300
C1097       C  0.28672413  0.30230311  0.31917874    -0.28700
C1098       C  0.31160381  0.28108005  0.31077628     0.44200
C1099       C  0.37207808  0.34689271  0.29022837     0.05400
O1100       O  0.32007424  0.38884745  0.30707493    -0.57200
H1101       H  0.27125540  0.35517990  0.32431081     0.18300
O1102       O  0.30954526  0.24564117  0.31178813    -0.63900
H1103       H  0.35798308  0.27943325  0.29494362     0.16800
C1104       C  0.39578021  0.36888334  0.29897755     0.29000
C1105       C  0.42360004  0.38265336  0.28935611    -0.24800
C1106       C  0.42884552  0.37423166  0.27104519    -0.24100
C1107       C  0.40568535  0.35128547  0.26240496     0.40500
C1108       C  0.37739871  0.33791021  0.27202089    -0.26600
O1109       O  0.39223182  0.37674727  0.31699865    -0.58500
H1110       H  0.44133797  0.39982697  0.29638118     0.16100
O1111       O  0.40947163  0.34289070  0.24447852    -0.59900
H1112       H  0.35936027  0.32072043  0.26521218     0.14600
H1113       H  0.32081863  0.23947705  0.32340515     0.46400
H1114       H  0.40419369  0.35786066  0.32355471     0.41800
H1115       H  0.42022976  0.31963193  0.24445244     0.45200
H1116       H  0.32554419  0.39759546  0.31938066     0.36700
C1117       C  0.60681846  0.07421225  0.39616791    -0.27500
C1118       C  0.64299181  0.07127429  0.39596194     0.02100
C1119       C  0.65911532  0.04920765  0.40858921     0.30200
C1120       C  0.63907748  0.03045226  0.42107324    -0.19300
C1121       C  0.60297756  0.03352456  0.42127513    -0.28700
C1122       C  0.58687178  0.05565806  0.40874712     0.44200
C1123       C  0.66366574  0.09242492  0.38302467     0.05400
O1124       O  0.69449254  0.04751024  0.40953658    -0.57200
H1125       H  0.65176562  0.01394269  0.43087786     0.18300
O1126       O  0.55167335  0.05957279  0.40884583    -0.63900
H1127       H  0.59403412  0.09116655  0.38661217     0.16800
C1128       C  0.68794498  0.07707623  0.37135507     0.29000
C1129       C  0.70827677  0.09779149  0.35993642    -0.24800
C1130       C  0.70427702  0.13399188  0.35948314    -0.24100
C1131       C  0.67908440  0.14921985  0.37076634     0.40500
C1132       C  0.65912472  0.12846796  0.38238622    -0.26600
O1133       O  0.69169840  0.04177453  0.37080126    -0.58500
H1134       H  0.72685693  0.08529302  0.35116394     0.16100
O1135       O  0.67392449  0.18435288  0.37076096    -0.59900
H1136       H  0.64038688  0.14067936  0.39118459     0.14600
H1137       H  0.54714530  0.07779018  0.41799522     0.46400
H1138       H  0.67364277  0.03344600  0.36229557     0.41800
H1139       H  0.68994610  0.19362924  0.38007990     0.45200
H1140       H  0.70046789  0.02358859  0.40582336     0.36700
C1141       C  0.68308786  0.32850850  0.27634718    -0.27500
C1142       C  0.67812959  0.32707089  0.29515169     0.02100
C1143       C  0.65658103  0.35151235  0.30353679     0.30200
C1144       C  0.63863321  0.37558391  0.29295859    -0.19300
C1145       C  0.64145240  0.37521751  0.27398349    -0.28700
C1146       C  0.66503840  0.35239446  0.26576458     0.44200
C1147       C  0.69318652  0.29803165  0.30551093     0.05400
O1148       O  0.65293448  0.35189987  0.32203566    -0.57200
H1149       H  0.62121019  0.39340378  0.29959162     0.18300
O1150       O  0.67002846  0.35250929  0.24737285    -0.63900
H1151       H  0.69993400  0.31006327  0.26976161     0.16800
C1152       C  0.67156613  0.27365845  0.31416026     0.29000
C1153       C  0.68577140  0.24454380  0.32250180    -0.24800
C1154       C  0.72156739  0.23856794  0.32204220    -0.24100
C1155       C  0.74329845  0.26338845  0.31362008     0.40500
C1156       C  0.72899966  0.29285336  0.30546623    -0.26600
O1157       O  0.63632659  0.27727377  0.31387326    -0.58500
H1158       H  0.66839956  0.22584347  0.32869302     0.16100
O1159       O  0.77850535  0.25947463  0.31356362    -0.59900
H1160       H  0.74588211  0.31146862  0.29883701     0.14600
H1161       H  0.68743234  0.37100626  0.24512219     0.46400
H1162       H  0.62873362  0.26651939  0.30233218     0.41800
H1163       H  0.78475037  0.25484392  0.30076413     0.45200
H1164       H  0.62891978  0.34399588  0.32443779     0.36700
C1165       C  0.15510436  0.60708596  0.06358973    -0.27500
C1166       C  0.14250280  0.57297544  0.06476604     0.02100
C1167       C  0.14570981  0.55465702  0.08120629     0.30200
C1168       C  0.16167290  0.57035822  0.09607664    -0.19300
C1169       C  0.17386375  0.60457331  0.09493763    -0.28700
C1170       C  0.17062681  0.62295104  0.07854679     0.44200
C1171       C  0.12687880  0.55637932  0.04867163     0.05400
O1172       O  0.13311036  0.52149263  0.08290779    -0.57200
H1173       H  0.16398743  0.55598499  0.10863594     0.18300
O1174       O  0.18332524  0.65608484  0.07686802    -0.63900
H1175       H  0.15344697  0.62124678  0.05094287     0.16800
C1176       C  0.09920692  0.57191055  0.03934886     0.29000
C1177       C  0.08451944  0.55522552  0.02434898    -0.24800
C1178       C  0.09715806  0.52313261  0.01859115    -0.24100
C1179       C  0.12485853  0.50775176  0.02779701     0.40500
C1180       C  0.13976735  0.52451526  0.04262126    -0.26600
O1181       O  0.08525388  0.60238172  0.04539627    -0.58500
H1182       H  0.06276305  0.56686298  0.01746258     0.16100
O1183       O  0.13740958  0.47625625  0.02238034    -0.59900
H1184       H  0.16132224  0.51249669  0.04950378     0.14600
H1185       H  0.20803457  0.65336560  0.07362832     0.46400
H1186       H  0.09346320  0.62037277  0.03677343     0.41800
H1187       H  0.12312081  0.45879012  0.02887763     0.45200
H1188       H  0.10844363  0.52415455  0.08624590     0.36700
C1189       C  0.30867046  0.56499877  0.14585520    -0.27500
C1190       C  0.31373799  0.57325331  0.16418349     0.02100
C1191       C  0.28873618  0.59295969  0.17335030     0.30200
C1192       C  0.26045657  0.60602244  0.16388988    -0.19300
C1193       C  0.25623108  0.59909748  0.14535718    -0.28700
C1194       C  0.28009961  0.57762381  0.13644417     0.44200
C1195       C  0.34671424  0.56412838  0.17301317     0.05400
O1196       O  0.29230228  0.60054024  0.19140759    -0.57200
H1197       H  0.24213523  0.62224442  0.17097937     0.18300
O1198       O  0.27697802  0.57054588  0.11830754    -0.63900
H1199       H  0.32785970  0.55023645  0.13853524     0.16800
C1200       C  0.36012531  0.53036716  0.17189762     0.29000
C1201       C  0.39303083  0.52347196  0.17870126    -0.24800
C1202       C  0.41263440  0.54972896  0.18702272    -0.24100
C1203       C  0.39891756  0.58323427  0.18856545     0.40500
C1204       C  0.36625638  0.59026332  0.18150549    -0.26600
O1205       O  0.34145713  0.50405290  0.16402644    -0.58500
H1206       H  0.40318883  0.49745699  0.17754322     0.16100
O1207       O  0.41768565  0.60963168  0.19627880    -0.59900
H1208       H  0.35666669  0.61655201  0.18212829     0.14600
H1209       H  0.28945991  0.58965710  0.11205685     0.46400
H1210       H  0.32572864  0.49544770  0.17366898     0.41800
H1211       H  0.43203387  0.61928085  0.18631668     0.45200
H1212       H  0.28288325  0.58002003  0.19788740     0.36700
C1213       C  0.22796119  0.10780700  0.12360921    -0.27500
C1214       C  0.20582076  0.12915687  0.13357411     0.02100
C1215       C  0.21147530  0.16521778  0.13348743     0.30200
C1216       C  0.24023258  0.17920023  0.12447574    -0.19300
C1217       C  0.26359151  0.15764942  0.11527570    -0.28700
C1218       C  0.25648713  0.12169210  0.11441907     0.44200
C1219       C  0.17943599  0.11300582  0.14550538     0.05400
O1220       O  0.18970149  0.18687425  0.14269805    -0.57200
H1221       H  0.24475023  0.20691605  0.12511256     0.18300
O1222       O  0.27866149  0.09939233  0.10592600    -0.63900
H1223       H  0.22415947  0.07995793  0.12371194     0.16800
C1224       C  0.15412723  0.09032987  0.13856089     0.29000
C1225       C  0.13200859  0.07241860  0.15040439    -0.24800
C1226       C  0.13537473  0.07592341  0.16929731    -0.24100
C1227       C  0.16019394  0.09934771  0.17619196     0.40500
C1228       C  0.18171031  0.11789458  0.16430203    -0.26600
O1229       O  0.15075520  0.08568950  0.12021622    -0.58500
H1230       H  0.11304429  0.05471402  0.14474988     0.16100
O1231       O  0.16336062  0.10468088  0.19448648    -0.59900
H1232       H  0.20118347  0.13519880  0.16983575     0.14600
H1233       H  0.26881778  0.09591110  0.09365397     0.46400
H1234       H  0.16126689  0.06283834  0.11765725     0.41800
H1235       H  0.18543069  0.09356884  0.19796306     0.45200
H1236       H  0.17042030  0.19145701  0.13420355     0.36700
C1237       C  0.12834341  0.10485047  0.30103980    -0.27500
C1238       C  0.15041861  0.12849071  0.29239477     0.02100
C1239       C  0.15664376  0.12539706  0.27367704     0.30200
C1240       C  0.14080985  0.09876423  0.26388021    -0.19300
C1241       C  0.11836161  0.07526208  0.27248116    -0.28700
C1242       C  0.11236658  0.07834597  0.29128256     0.44200
C1243       C  0.16698221  0.15614896  0.30307431     0.05400
O1244       O  0.17795190  0.14840248  0.26483296    -0.57200
H1245       H  0.14581025  0.09673582  0.24947365     0.18300
O1246       O  0.09172844  0.05524965  0.30044740    -0.63900
H1247       H  0.12392537  0.10659127  0.31550686     0.16800
C1248       C  0.14706588  0.17914339  0.31345152     0.29000
C1249       C  0.16321929  0.20621058  0.32275878    -0.24800
C1250       C  0.19918768  0.21080118  0.32181519    -0.24100
C1251       C  0.21919798  0.18687485  0.31198388     0.40500
C1252       C  0.20301647  0.15966898  0.30279916    -0.26600
O1253       O  0.11167466  0.17664510  0.31363100    -0.58500
H1254       H  0.14733342  0.22448457  0.33008682     0.16100
O1255       O  0.25455729  0.18950816  0.31149424    -0.59900
H1256       H  0.21863176  0.14146173  0.29525910     0.14600
H1257       H  0.10738905  0.03640408  0.30433052     0.46400
H1258       H  0.10569087  0.16699690  0.32570048     0.41800
H1259       H  0.26015706  0.19835024  0.29920553     0.45200
H1260       H  0.16277429  0.16775121  0.26110812     0.36700
C1261       C  0.91527835  0.07355661  0.29960350    -0.27500
C1262       C  0.88682866  0.08984233  0.29157742     0.02100
C1263       C  0.88178463  0.08683722  0.27275687     0.30200
C1264       C  0.90469865  0.06749220  0.26228579    -0.19300
C1265       C  0.93286076  0.05059184  0.27027385    -0.28700
C1266       C  0.93835436  0.05420673  0.28910481     0.44200
C1267       C  0.86176524  0.10916904  0.30280207     0.05400
O1268       O  0.85403312  0.10214124  0.26449952    -0.57200
H1269       H  0.90006805  0.06550638  0.24786268     0.18300
O1270       O  0.96532129  0.03791027  0.29753898    -0.63900
H1271       H  0.91954637  0.07577399  0.31406212     0.16800
C1272       C  0.84314850  0.09263886  0.31674530     0.29000
C1273       C  0.81624810  0.11005967  0.32547624    -0.24800
C1274       C  0.80742958  0.14420360  0.32059660    -0.24100
C1275       C  0.82764083  0.16128739  0.30728027     0.40500
C1276       C  0.85448813  0.14376557  0.29859041    -0.26600
O1277       O  0.84941205  0.05866028  0.32105014    -0.58500
H1278       H  0.80154454  0.09617756  0.33568655     0.16100
O1279       O  0.82124577  0.19490099  0.30237067    -0.59900
H1280       H  0.86909039  0.15697776  0.28808889     0.14600
H1281       H  0.98434073  0.05526915  0.29775889     0.46400
H1282       H  0.86342755  0.05948205  0.33228710     0.41800
H1283       H  0.80726341  0.19328765  0.29113833     0.45200
H1284       H  0.83492936  0.08497456  0.26549381     0.36700
C1285       C  0.14414262  0.82843448  0.14480272    -0.27500
C1286       C  0.16347713  0.80501333  0.15511034     0.02100
C1287       C  0.17258734  0.81362298  0.17304539     0.30200
C1288       C  0.16136330  0.84474108  0.18058497    -0.19300
C1289       C  0.14047076  0.86728936  0.17057421    -0.28700
C1290       C  0.13247581  0.85928160  0.15241261     0.44200
C1291       C  0.17273037  0.77106377  0.14734719     0.05400
O1292       O  0.19130408  0.79121999  0.18356065    -0.57200
H1293       H  0.16774709  0.85034912  0.19456238     0.18300
O1294       O  0.11266347  0.88100611  0.14206590    -0.63900
H1295       H  0.13762262  0.82254491  0.13086573     0.16800
C1296       C  0.14724780  0.74924726  0.13972750     0.29000
C1297       C  0.15617752  0.71628930  0.13354171    -0.24800
C1298       C  0.19022952  0.70451868  0.13506661    -0.24100
C1299       C  0.21586942  0.72669500  0.14222700     0.40500
C1300       C  0.20704584  0.75976551  0.14819016    -0.26600
O1301       O  0.11321516  0.75901148  0.13939258    -0.58500
H1302       H  0.13614585  0.69940249  0.12820612     0.16100
O1303       O  0.24958858  0.71625996  0.14357162    -0.59900
H1304       H  0.22701207  0.77652022  0.15369728     0.14600
H1305       H  0.12925940  0.89757267  0.13649425     0.46400
H1306       H  0.10814141  0.76427941  0.12651483     0.41800
H1307       H  0.26001876  0.72150432  0.13159408     0.45200
H1308       H  0.17398996  0.77524242  0.18900427     0.36700
C1309       C  0.90867567  0.36850035  0.07366159    -0.27500
C1310       C  0.92969383  0.34590505  0.06377435     0.02100
C1311       C  0.93545473  0.31223468  0.07036561     0.30200
C1312       C  0.92049077  0.30168867  0.08669501    -0.19300
C1313       C  0.89922143  0.32417705  0.09664500    -0.28700
C1314       C  0.89327560  0.35789506  0.08988285     0.44200
C1315       C  0.94679304  0.35844931  0.04709903     0.05400
O1316       O  0.95561165  0.28938625  0.06092185    -0.57200
H1317       H  0.92530640  0.27557775  0.09142223     0.18300
O1318       O  0.87349665  0.38118760  0.09924903    -0.63900
H1319       H  0.90462315  0.39475945  0.06893129     0.16800
C1320       C  0.92771523  0.37443467  0.03317093     0.29000
C1321       C  0.94491689  0.38934529  0.01842106    -0.24800
C1322       C  0.98102045  0.38814955  0.01731383    -0.24100
C1323       C  0.99996612  0.37080072  0.03074163     0.40500
C1324       C  0.98286562  0.35628200  0.04558775    -0.26600
O1325       O  0.89237365  0.37630589  0.03407481    -0.58500
H1326       H  0.93022457  0.40267356  0.00807834     0.16100
O1327       O  0.03532464  0.36928630  0.02982459    -0.59900
H1328       H  0.99791488  0.34434152  0.05624757     0.14600
H1329       H  0.85034561  0.38003996  0.09350862     0.46400
H1330       H  0.88386883  0.35396229  0.02909725     0.41800
H1331       H  0.04029671  0.34862480  0.02230853     0.45200
H1332       H  0.93964193  0.27772288  0.05233480     0.36700
C1333       C  0.93752755  0.11514156  0.15146238    -0.27500
C1334       C  0.92089629  0.13677815  0.16387432     0.02100
C1335       C  0.91542796  0.12534416  0.18177247     0.30200
C1336       C  0.92830828  0.09321789  0.18727118    -0.19300
C1337       C  0.94692265  0.07262936  0.17508349    -0.28700
C1338       C  0.95046112  0.08325958  0.15691914     0.44200
C1339       C  0.91025202  0.17147712  0.15789752     0.05400
O1340       O  0.89864701  0.14584153  0.19408703    -0.57200
H1341       H  0.92514847  0.08516704  0.20124880     0.18300
O1342       O  0.96677229  0.06287640  0.14438367    -0.63900
H1343       H  0.94086006  0.12324029  0.13750333     0.16800
C1344       C  0.93458985  0.19457249  0.15030475     0.29000
C1345       C  0.92381468  0.22646527  0.14350313    -0.24800
C1346       C  0.88891244  0.23577999  0.14423042    -0.24100
C1347       C  0.86461466  0.21280373  0.15206766     0.40500
C1348       C  0.87543107  0.18090334  0.15888008    -0.26600
O1349       O  0.96906857  0.18646688  0.14993517    -0.58500
H1350       H  0.94283454  0.24401597  0.13772038     0.16100
O1351       O  0.83013098  0.22075263  0.15264059    -0.59900
H1352       H  0.85647237  0.16308219  0.16448795     0.14600
H1353       H  0.94895751  0.04604258  0.14027411     0.46400
H1354       H  0.97420536  0.18070702  0.13712588     0.41800
H1355       H  0.82061729  0.21264829  0.14090171     0.45200
H1356       H  0.91705824  0.15999393  0.19987171     0.36700
C1357       C  0.77194492  0.34558994  0.16939324    -0.27500
C1358       C  0.74967710  0.36355343  0.15781379     0.02100
C1359       C  0.75879256  0.36836100  0.13952784     0.30200
C1360       C  0.78945077  0.35429383  0.13292312    -0.19300
C1361       C  0.81102291  0.33491440  0.14432270    -0.28700
C1362       C  0.80241839  0.33127985  0.16280126     0.44200
C1363       C  0.71673063  0.37658199  0.16495224     0.05400
O1364       O  0.73741700  0.38582280  0.12790104    -0.57200
H1365       H  0.79559775  0.35738059  0.11868707     0.18300
O1366       O  0.82338739  0.31356414  0.17452679    -0.63900
H1367       H  0.76552922  0.34245853  0.18359584     0.16800
C1368       C  0.69306338  0.35394302  0.17341586     0.29000
C1369       C  0.66225277  0.36684327  0.18044101    -0.24800
C1370       C  0.65456968  0.40218949  0.17908438    -0.24100
C1371       C  0.67839066  0.42489153  0.17065443     0.40500
C1372       C  0.70917631  0.41193624  0.16360749    -0.26600
O1373       O  0.69927459  0.31899750  0.17422116    -0.58500
H1374       H  0.64411720  0.34903272  0.18675817     0.16100
O1375       O  0.67234874  0.45980595  0.16954041    -0.59900
H1376       H  0.72749582  0.42962459  0.15733961     0.14600
H1377       H  0.84053069  0.33090867  0.17883123     0.46400
H1378       H  0.70576354  0.31431404  0.18698460     0.41800
H1379       H  0.68172283  0.46968420  0.18093684     0.45200
H1380       H  0.72106844  0.36805592  0.12323475     0.36700
C1381       C  0.39739687  0.85802548  0.36822498    -0.27500
C1382       C  0.41291559  0.84399748  0.38373811     0.02100
C1383       C  0.40721340  0.80881632  0.38803706     0.30200
C1384       C  0.38679588  0.78810329  0.37668510    -0.19300
C1385       C  0.37129992  0.80211130  0.36118704    -0.28700
C1386       C  0.37673205  0.83739400  0.35697526     0.44200
C1387       C  0.43420607  0.86651413  0.39560241     0.05400
O1388       O  0.41979206  0.79507834  0.40386012    -0.57200
H1389       H  0.38233240  0.76120135  0.38027835     0.18300
O1390       O  0.36233540  0.85189792  0.34179978    -0.63900
H1391       H  0.40152676  0.88504221  0.36476352     0.16800
C1392       C  0.46807190  0.85710362  0.40053038     0.29000
C1393       C  0.48658452  0.87727948  0.41292757    -0.24800
C1394       C  0.47223013  0.90758775  0.42004128    -0.24100
C1395       C  0.43926167  0.91815686  0.41435394     0.40500
C1396       C  0.42034262  0.89751986  0.40230452    -0.26600
O1397       O  0.48323024  0.82814581  0.39338905    -0.58500
H1398       H  0.51210536  0.86917265  0.41714007     0.16100
O1399       O  0.42478172  0.94776600  0.42115746    -0.59900
H1400       H  0.39446519  0.90527811  0.39853122     0.14600
H1401       H  0.37903318  0.84734923  0.33190048     0.46400
H1402       H  0.49244996  0.83556353  0.38145008     0.41800
H1403       H  0.43346710  0.96673008  0.41326293     0.45200
H1404       H  0.43689448  0.77741305  0.40014836     0.36700
C1405       C  0.20187989  0.84499342  0.27287100    -0.27500
C1406       C  0.18994217  0.83005608  0.28899083     0.02100
C1407       C  0.15481603  0.83160175  0.29348804     0.30200
C1408       C  0.13217456  0.84976436  0.28229759    -0.19300
C1409       C  0.14430183  0.86657170  0.26657304    -0.28700
C1410       C  0.17930983  0.86295194  0.26156727     0.44200
C1411       C  0.21492827  0.81420345  0.30130292     0.05400
O1412       O  0.14272822  0.81670363  0.30915584    -0.57200
H1413       H  0.10535026  0.85141549  0.28630947     0.18300
O1414       O  0.19218788  0.87812767  0.24614614    -0.63900
H1415       H  0.22899090  0.84341159  0.26928510     0.16800
C1416       C  0.22432726  0.77948568  0.29919080     0.29000
C1417       C  0.25106851  0.76593922  0.30962925    -0.24800
C1418       C  0.26912302  0.78685559  0.32214664    -0.24100
C1419       C  0.25830505  0.82144461  0.32476204     0.40500
C1420       C  0.23148933  0.83485121  0.31426330    -0.26600
O1421       O  0.20790835  0.75881668  0.28672357    -0.58500
H1422       H  0.25826277  0.73922095  0.30743462     0.16100
O1423       O  0.27436799  0.84283198  0.33701239    -0.59900
H1424       H  0.22417719  0.86173797  0.31589154     0.14600
H1425       H  0.18926169  0.86043317  0.23652166     0.46400
H1426       H  0.22104326  0.76206554  0.27529779     0.41800
H1427       H  0.26141993  0.83957706  0.34849374     0.45200
H1428       H  0.13504637  0.79309436  0.30561384     0.36700
C1429       C  0.39234469  0.60768336  0.28405386    -0.27500
C1430       C  0.39265415  0.60318212  0.30290056     0.02100
C1431       C  0.40962002  0.57449153  0.31043037     0.30200
C1432       C  0.42742388  0.55157179  0.29911934    -0.19300
C1433       C  0.42909829  0.55744586  0.28033925    -0.28700
C1434       C  0.41038644  0.58512160  0.27278283     0.44200
C1435       C  0.37730885  0.63036271  0.31433768     0.05400
O1436       O  0.40894246  0.56880932  0.32878316    -0.57200
H1437       H  0.44133311  0.53029268  0.30521342     0.18300
O1438       O  0.41065033  0.59120610  0.25446654    -0.63900
H1439       H  0.37921754  0.62966744  0.27811462     0.16800
C1440       C  0.39832532  0.65145741  0.32536293     0.29000
C1441       C  0.38469576  0.68131196  0.33327765    -0.24800
C1442       C  0.35024556  0.69098992  0.33008644    -0.24100
C1443       C  0.32870335  0.66841569  0.31995745     0.40500
C1444       C  0.34237827  0.63846339  0.31219322    -0.26600
O1445       O  0.43275723  0.64434665  0.32755262    -0.58500
H1446       H  0.40182547  0.69792214  0.34103227     0.16100
O1447       O  0.29440310  0.67556096  0.31725397    -0.59900
H1448       H  0.32597027  0.62223920  0.30379806     0.14600
H1449       H  0.39191128  0.57636297  0.24949700     0.46400
H1450       H  0.44451776  0.65572013  0.31716406     0.41800
H1451       H  0.29277010  0.68368767  0.30452897     0.45200
H1452       H  0.43263993  0.57420289  0.33310111     0.36700
C1453       C  0.61898021  0.84712480  0.04220850    -0.27500
C1454       C  0.64434832  0.86299454  0.05306128     0.02100
C1455       C  0.64768117  0.89945401  0.05276798     0.30200
C1456       C  0.62681650  0.91920856  0.04124236    -0.19300
C1457       C  0.60229174  0.90307987  0.03004577    -0.28700
C1458       C  0.59783174  0.86690176  0.03093282     0.44200
C1459       C  0.66768487  0.84114769  0.06418938     0.05400
O1460       O  0.67171080  0.91596789  0.06340337    -0.57200
H1461       H  0.63055796  0.94703635  0.04057118     0.18300
O1462       O  0.57404943  0.85051328  0.02009295    -0.63900
H1463       H  0.61623984  0.81917432  0.04203672     0.16800
C1464       C  0.65429408  0.81541749  0.07580940     0.29000
C1465       C  0.67667977  0.79467453  0.08591443    -0.24800
C1466       C  0.71276169  0.79886103  0.08469957    -0.24100
C1467       C  0.72617060  0.82451948  0.07291312     0.40500
C1468       C  0.70369411  0.84533127  0.06281880    -0.26600
O1469       O  0.61926935  0.81142278  0.07801146    -0.58500
H1470       H  0.66548934  0.77559396  0.09498702     0.16100
O1471       O  0.76111086  0.82955569  0.07105998    -0.59900
H1472       H  0.71449251  0.86455411  0.05368145     0.14600
H1473       H  0.55182691  0.85222669  0.02671677     0.46400
H1474       H  0.61335119  0.78913989  0.07204356     0.41800
H1475       H  0.76827880  0.81338116  0.06134737     0.45200
H1476       H  0.66058626  0.91825305  0.07544581     0.36700
C1477       C  0.67512998  0.66883472  0.13785094    -0.27500
C1478       C  0.69641132  0.64688264  0.14789188     0.02100
C1479       C  0.73243217  0.65056945  0.14676022     0.30200
C1480       C  0.74680530  0.67676058  0.13589004    -0.19300
C1481       C  0.72552137  0.69964906  0.12611405    -0.28700
C1482       C  0.68925339  0.69498244  0.12700612     0.44200
C1483       C  0.68002074  0.62087837  0.15974564     0.05400
O1484       O  0.75367618  0.62847335  0.15604262    -0.57200
H1485       H  0.77467520  0.67936618  0.13531581     0.18300
O1486       O  0.66713228  0.71672672  0.11807895    -0.63900
H1487       H  0.64727767  0.66606356  0.13870733     0.16800
C1488       C  0.67520365  0.62760943  0.17827264     0.29000
C1489       C  0.65377049  0.60590134  0.18861832    -0.24800
C1490       C  0.63712193  0.57721886  0.18067397    -0.24100
C1491       C  0.64377302  0.56952671  0.16226775     0.40500
C1492       C  0.66495509  0.59142960  0.15197525    -0.26600
O1493       O  0.68948621  0.65660179  0.18606260    -0.58500
H1494       H  0.64946740  0.61218064  0.20272473     0.16100
O1495       O  0.62885730  0.54137292  0.15396758    -0.59900
H1496       H  0.66853568  0.58617984  0.13767713     0.14600
H1497       H  0.66159475  0.70477786  0.10653862     0.46400
H1498       H  0.71172132  0.64878867  0.19127707     0.41800
H1499       H  0.60774606  0.55038048  0.14803366     0.45200
H1500       H  0.76058024  0.64126812  0.16712336     0.36700
C1501       C  0.86575937  0.82535473  0.12117575    -0.27500
C1502       C  0.88621498  0.80323093  0.13167918     0.02100
C1503       C  0.87642360  0.76825842  0.13356742     0.30200
C1504       C  0.84543482  0.75640774  0.12595609    -0.19300
C1505       C  0.82366302  0.77905984  0.11636695    -0.28700
C1506       C  0.83473340  0.81365441  0.11357092     0.44200
C1507       C  0.91460274  0.81827074  0.14260698     0.05400
O1508       O  0.89621135  0.74584975  0.14351435    -0.57200
H1509       H  0.83791068  0.72962701  0.12813059     0.18300
O1510       O  0.81474260  0.83688634  0.10427891    -0.63900
H1511       H  0.87272565  0.85247640  0.11979904     0.16800
C1512       C  0.94089226  0.83852293  0.13461591     0.29000
C1513       C  0.96375637  0.85742718  0.14558432    -0.24800
C1514       C  0.96016004  0.85703567  0.16452273    -0.24100
C1515       C  0.93519636  0.83504202  0.17248624     0.40500
C1516       C  0.91268951  0.81591581  0.16154515    -0.26600
O1517       O  0.94403727  0.84031436  0.11611847    -0.58500
H1518       H  0.98295150  0.87389472  0.13916955     0.16100
O1519       O  0.93142548  0.83329353  0.19094717    -0.59900
H1520       H  0.89242610  0.80064115  0.16789590     0.14600
H1521       H  0.80050738  0.84846108  0.11364002     0.46400
H1522       H  0.93556577  0.86363301  0.11271362     0.41800
H1523       H  0.94861892  0.81601029  0.19501734     0.45200
H1524       H  0.91336993  0.73653930  0.13483920     0.36700
C1525       C  0.97937202  0.56516776  0.40952681    -0.27500
C1526       C  0.94610775  0.55470721  0.40403095     0.02100
C1527       C  0.92965870  0.52705646  0.41324511     0.30200
C1528       C  0.94671868  0.50996594  0.42732181    -0.19300
C1529       C  0.97983049  0.52054838  0.43271562    -0.28700
C1530       C  0.99605610  0.54853219  0.42387962     0.44200
C1531       C  0.92911532  0.57241867  0.38855211     0.05400
O1532       O  0.89683684  0.51665982  0.40869016    -0.57200
H1533       H  0.93403666  0.48849336  0.43414790     0.18300
O1534       O  0.02814647  0.55978776  0.42926386    -0.63900
H1535       H  0.99270815  0.58600972  0.40252524     0.16800
C1536       C  0.92840199  0.60892523  0.38734074     0.29000
C1537       C  0.91329224  0.62496878  0.37233544    -0.24800
C1538       C  0.89767029  0.60517558  0.35866347    -0.24100
C1539       C  0.89797265  0.56876718  0.35990001     0.40500
C1540       C  0.91391708  0.55267667  0.37464664    -0.26600
O1541       O  0.94197605  0.62922008  0.40085421    -0.58500
H1542       H  0.91307792  0.65302015  0.37157968     0.16100
O1543       O  0.88345215  0.54865079  0.34657276    -0.59900
H1544       H  0.91480650  0.52463172  0.37507118     0.14600
H1545       H  0.04461051  0.54906673  0.42066685     0.46400
H1546       H  0.92310258  0.63164514  0.40985005     0.41800
H1547       H  0.90197132  0.54556769  0.33743353     0.45200
H1548       H  0.88131633  0.53079245  0.41636229     0.36700
C1549       C  0.74401126  0.59215503  0.32007292    -0.27500
C1550       C  0.73623897  0.59730401  0.30169307     0.02100
C1551       C  0.76100860  0.61295588  0.29031642     0.30200
C1552       C  0.79305801  0.62286486  0.29730712    -0.19300
C1553       C  0.80129351  0.61690435  0.31558404    -0.28700
C1554       C  0.77626924  0.60170541  0.32704768     0.44200
C1555       C  0.70322914  0.58421583  0.29422012     0.05400
O1556       O  0.75453630  0.61782704  0.27222324    -0.57200
H1557       H  0.81184378  0.63453836  0.28823383     0.18300
O1558       O  0.78286887  0.59625538  0.34507673    -0.63900
H1559       H  0.72502955  0.58047108  0.32903149     0.16800
C1560       C  0.69351915  0.54936609  0.29676194     0.29000
C1561       C  0.66343327  0.53662819  0.28878673    -0.24800
C1562       C  0.64263403  0.55800260  0.27797158    -0.24100
C1563       C  0.65203564  0.59304073  0.27559818     0.40500
C1564       C  0.68215389  0.60593309  0.28373761    -0.26600
O1565       O  0.71380796  0.52718417  0.30658371    -0.58500
H1566       H  0.65711775  0.50951939  0.29071959     0.16100
O1567       O  0.63221714  0.61482875  0.26530351    -0.59900
H1568       H  0.68918987  0.63290802  0.28178495     0.14600
H1569       H  0.77548727  0.61780506  0.35123606     0.46400
H1570       H  0.73110807  0.51830497  0.29785455     0.41800
H1571       H  0.61524062  0.62486783  0.27385482     0.45200
H1572       H  0.76095978  0.59569451  0.26633075     0.36700
C1573       C  0.97479815  0.79251081  0.28397117    -0.27500
C1574       C  0.94148511  0.77970377  0.28063683     0.02100
C1575       C  0.92037998  0.79629715  0.26779558     0.30200
C1576       C  0.93273103  0.82552301  0.25853626    -0.19300
C1577       C  0.96598812  0.83861765  0.26197731    -0.28700
C1578       C  0.98714969  0.82173523  0.27477486     0.44200
C1579       C  0.92886674  0.74925737  0.29083180     0.05400
O1580       O  0.88704521  0.78520135  0.26495760    -0.57200
H1581       H  0.91584912  0.83841068  0.24901316     0.18300
O1582       O  0.02025506  0.83300846  0.27808082    -0.63900
H1583       H  0.99132321  0.77971772  0.29372266     0.16800
C1584       C  0.91819420  0.71903982  0.28172005     0.29000
C1585       C  0.90421118  0.69135454  0.29150677    -0.24800
C1586       C  0.90166737  0.69294497  0.31043560    -0.24100
C1587       C  0.91366332  0.72252322  0.31965915     0.40500
C1588       C  0.92721849  0.75050770  0.30982700    -0.26600
O1589       O  0.92115319  0.71642248  0.26325523    -0.58500
H1590       H  0.89521432  0.66856049  0.28429722     0.16100
O1591       O  0.91094183  0.72487960  0.33814676    -0.59900
H1592       H  0.93559198  0.77359317  0.31697819     0.14600
H1593       H  0.01882853  0.84665450  0.28943381     0.46400
H1594       H  0.94530281  0.70906872  0.26106742     0.41800
H1595       H  0.88736263  0.73380389  0.34042491     0.45200
H1596       H  0.88694965  0.77483645  0.25266781     0.36700
loop_ 
_geom_bond_atom_site_label_1 
_geom_bond_atom_site_label_2 
_geom_bond_distance 
_geom_bond_site_symmetry_2 
_ccdc_geom_bond_type 
C1            N2   1.358       .  A
C1            N6   1.354       .  A
C1         C1553   1.476       .  S
N2            C3   1.359       .  A
C3            N4   1.359       .  A
C3         C1538   1.472       .  S
N4            C5   1.357       .  A
C5            N6   1.353       .  A
C5         C1586   1.465       .  S
C7            N8   1.357       .  A
C7           N12   1.356       .  A
C7         C1481   1.486       .  S
N8            C9   1.359       .  A
C9           N10   1.360       .  A
C9         C1505   1.486       .  S
N10          C11   1.358       .  A
C11          N12   1.357       .  A
C11        C1466   1.488       .  S
C13          N14   1.355       .  A
C13          N18   1.360       .  A
C13        C1442   1.485       .  S
N14          C15   1.355       .  A
C15          N16   1.356       .  A
C15        C1418   1.484       .  S
N16          C17   1.357       .  A
C17          N18   1.360       .  A
C17        C1385   1.474       .  S
C19          N20   1.358       .  A
C19          N24   1.357       .  A
C19        C1313   1.482       .  S
N20          C21   1.356       .  A
C21          N22   1.352       .  A
C21        C1346   1.469       .  S
N22          C23   1.354       .  A
C23          N24   1.356       .  A
C23        C1361   1.471       .  S
C25          N43   1.351       .  A
C25          C62   1.459       .  S
C25        C1409   1.476       .  S
N26          N43   1.323       .  A
N26          N48   1.317       .  A
N26         Co63   2.079       .  S
C27          N52   1.339   1_545  A
C27          C65   1.463       .  S
C27          H72   1.081       .  S
H28          C69   1.081       .  S
C29          N53   1.341       .  A
C29          C33   1.462   1_455  S
C29          H58   1.081       .  S
Co30         N48   2.067       .  S
Co30         N38   2.065       .  S
Co30         N70   2.063   1_565  S
Co30         N46   2.077   1_455  S
Co30        Cl74   2.440       .  S
N31          C69   1.342       .  A
N31          N38   1.318   1_655  A
N31         Co32   2.085       .  S
Co32         N35   2.077       .  S
Co32         N52   2.080       .  S
Co32         N39   2.083       .  S
Co32        Cl74   2.450   1_655  S
C33          N71   1.349       .  A
C33        C1514   1.476       .  S
N34          N41   1.319       .  A
N34          N64   1.319       .  A
N34         Co67   2.065       .  S
N35          N53   1.319   1_655  A
N35          N71   1.321       .  A
N36          C65   1.350       .  A
N36          N46   1.324   1_545  A
H37          C62   1.081       .  S
N38          N59   1.320       .  A
N39          N57   1.320   1_665  A
N39          N44   1.325   1_565  A
C40          N44   1.350       .  A
C40          C68   1.453       .  S
C40        C1337   1.466       .  S
N41          C56   1.340       .  A
N41         Co63   2.080       .  S
C42          N70   1.333       .  A
C42          C45   1.456       .  S
C42          H76   1.080       .  S
C45          N66   1.352       .  A
C45        C1241   1.471       .  S
N46          N52   1.318       .  A
N47          C73   1.341       .  A
N47          N49   1.319       .  A
N47         Co63   2.085   1_545  S
N48          C62   1.336       .  A
N49          N77   1.324       .  A
N49         Co67   2.085   1_545  S
H50          C73   1.081       .  S
H51          C68   1.081   1_455  S
N53         Co67   2.081       .  S
N54          N66   1.323       .  A
N54          N70   1.319       .  A
N54         Co63   2.084   1_545  S
C55          N59   1.345   1_655  A
C55          C69   1.465       .  S
C55        C1577   1.475       .  S
C56          C75   1.462       .  S
C56          H60   1.081       .  S
N57          C68   1.332   1_455  A
N57         Co67   2.064   1_545  S
C61          N77   1.351       .  A
C61          C73   1.466       .  S
C61        C1226   1.484       .  S
Co63        Cl74   2.450       .  S
N64          C75   1.346       .  A
C65        C1265   1.481       .  S
Co67        Cl74   2.442       .  S
C75        C1289   1.470       .  S
C78          N79   1.357       .  A
C78          N83   1.357       .  A
C78        C1169   1.468       .  S
N79          C80   1.356       .  A
C80          N81   1.354       .  A
C80        C1298   1.469       .  S
N81          C82   1.354       .  A
C82          N83   1.357       .  A
C82        C1193   1.471       .  S
C84          N85   1.359       .  A
C84          N89   1.360       .  A
C84        C1274   1.491       .  S
N85          C86   1.358       .  A
C86          N87   1.357       .  A
C86        C1130   1.486       .  S
N87          C88   1.359       .  A
C88          N89   1.359       .  A
C88        C1154   1.485       .  S
C90          N91   1.356       .  A
C90          N95   1.359       .  A
C90        C1082   1.472       .  S
N91          C92   1.355       .  A
C92          N93   1.352       .  A
C92        C1250   1.471       .  S
N93          C94   1.354       .  A
C94          N95   1.359       .  A
C94        C1097   1.473       .  S
C96          N97   1.358       .  A
C96         N101   1.360       .  A
C96        C1025   1.484       .  S
N97          C98   1.356       .  A
C98          N99   1.357       .  A
C98        C1217   1.485       .  S
N99         C100   1.359       .  A
C100        N101   1.362       .  A
C100       C1058   1.491       .  S
C102        N120   1.354       .  A
C102        C139   1.454       .  S
C102       C1562   1.475       .  S
N103        N120   1.326       .  A
N103        N125   1.319       .  A
N103       Co140   2.093       .  S
C104        N129   1.342       .  A
C104        C142   1.465       .  S
C104        H149   1.080       .  S
H105        C146   1.081       .  S
C106        N130   1.336       .  A
C106        C110   1.455       .  S
C106        H135   1.081       .  S
Co107       N125   2.059       .  S
Co107       N115   2.081       .  S
Co107       N147   2.078       .  S
Co107       N123   2.062       .  S
Co107      Cl151   2.441       .  S
N108        C146   1.338       .  A
N108        N115   1.317       .  A
N108       Co109   2.076       .  S
Co109       N112   2.083       .  S
Co109       N129   2.083       .  S
Co109       N116   2.073       .  S
Co109      Cl151   2.446       .  S
C110        N148   1.351       .  A
C110       C1370   1.469       .  S
N111        N118   1.318       .  A
N111        N141   1.320       .  A
N111       Co144   2.076       .  S
N112        N130   1.319       .  A
N112        N148   1.323       .  A
N113        C142   1.345       .  A
N113        N123   1.317       .  A
H114        C139   1.081       .  S
N115        N136   1.324       .  A
N116        N134   1.317       .  A
N116        N121   1.321       .  A
C117        N121   1.348       .  A
C117        C145   1.464       .  S
C117       C1049   1.479       .  S
N118        C133   1.343       .  A
N118       Co140   2.082       .  S
C119        N147   1.340       .  A
C119        C122   1.462       .  S
C119        H153   1.081       .  S
C122        N143   1.349       .  A
C122       C1433   1.475       .  S
N123        N129   1.318       .  A
N124        C150   1.340       .  A
N124        N126   1.320       .  A
N124       Co140   2.086       .  S
N125        C139   1.331       .  A
N126        N154   1.321       .  A
N126       Co144   2.067       .  S
H127        C150   1.081       .  S
H128        C145   1.081       .  S
N130       Co144   2.064       .  S
N131        N143   1.322       .  A
N131        N147   1.318       .  A
N131       Co140   2.079       .  S
C132        N136   1.351       .  A
C132        C146   1.461       .  S
C132       C1145   1.478       .  S
C133        C152   1.466       .  S
C133        H137   1.081       .  S
N134        C145   1.342       .  A
N134       Co144   2.082       .  S
C138        N154   1.346       .  A
C138        C150   1.460       .  S
C138       C1202   1.468       .  S
Co140      Cl151   2.453       .  S
N141        C152   1.347       .  A
C142       C1106   1.473       .  S
Co144      Cl151   2.442       .  S
C152       C1490   1.481       .  S
N155        C160   1.350       .  A
N155        C159   1.354       .  A
N155        H187   1.033       .  S
N156        C163   1.353       .  A
N156        C164   1.351       .  A
N157        C162   1.354       .  A
N157        C161   1.352       .  A
N157        H188   1.035       .  S
N158        C165   1.350       .  A
N158        C166   1.351       .  A
C159        C167   1.388       .  A
C159        C175   1.418       .  A
C160        C176   1.415   1_565  A
C160        C168   1.387       .  A
C161        C169   1.388       .  A
C161        C178   1.418       .  A
C162        C177   1.417   1_565  A
C162        C170   1.386       .  A
C163        C175   1.416       .  A
C163        C171   1.386       .  A
C164        C178   1.417       .  A
C164        C172   1.388       .  A
C165        C173   1.387       .  A
C165        C176   1.413       .  A
C166        C174   1.386       .  A
C166        C177   1.413       .  A
C167        H179   1.082       .  S
C167        C168   1.373       .  A
C168        H180   1.082       .  S
C169        H181   1.082       .  S
C169        C170   1.375       .  A
C170        H182   1.082       .  S
C171        H183   1.082       .  S
C171        C172   1.371       .  A
C172        H184   1.082       .  S
C173        H185   1.082       .  S
C173        C174   1.370       .  A
C174        H186   1.082       .  S
C175       C1001   1.488       .  S
C176        C977   1.478       .  S
C177       C1121   1.489       .  S
C178       C1394   1.482       .  S
N189        C194   1.350   1_556  A
N189        C193   1.349   1_556  A
N189        H221   1.036       .  S
N190        C197   1.350   1_455  A
N190        C198   1.348       .  A
N191        C196   1.353       .  A
N191        C195   1.355       .  A
N191        H222   1.036       .  S
N192        C199   1.351       .  A
N192        C200   1.350       .  A
C193        C201   1.387       .  A
C193        C209   1.410   1_455  A
C194        C210   1.409       .  A
C194        C202   1.387       .  A
C195        C203   1.387       .  A
C195        C212   1.418       .  A
C196        C211   1.417       .  A
C196        C204   1.387       .  A
C197        C209   1.408   1_556  A
C197        C205   1.385       .  A
C198        C212   1.411       .  A
C198        C206   1.387   1_455  A
C199        C207   1.385       .  A
C199        C210   1.410   1_556  A
C200        C208   1.388       .  A
C200        C211   1.413       .  A
C201        H213   1.083   1_455  S
C201        C202   1.373       .  A
C202        H214   1.082       .  S
C203        H215   1.082       .  S
C203        C204   1.378       .  A
C204        H216   1.082       .  S
C205        H217   1.082       .  S
C205        C206   1.372       .  A
C206        H218   1.082       .  S
C207        H219   1.082       .  S
C207        C208   1.372       .  A
C208        H220   1.082       .  S
C209       C1322   1.477       .  S
C210       C1178   1.477       .  S
C211        C938   1.482       .  S
C212        C953   1.486   1_455  S
N223        C228   1.351       .  A
N223        C227   1.350       .  A
N223        H255   1.032       .  S
N224        C231   1.350       .  A
N224        C232   1.350       .  A
N225        C230   1.351       .  A
N225        C229   1.353       .  A
N225        H256   1.035       .  S
N226        C233   1.352   1_455  A
N226        C234   1.350   1_455  A
C227        C235   1.388       .  A
C227        C243   1.416       .  A
C228        C244   1.416   1_455  A
C228        C236   1.388       .  A
C229        C237   1.387       .  A
C229        C246   1.417       .  A
C230        C245   1.416   1_455  A
C230        C238   1.387       .  A
C231        C243   1.413       .  A
C231        C239   1.386       .  A
C232        C246   1.414       .  A
C232        C240   1.387       .  A
C233        C241   1.386       .  A
C233        C244   1.415       .  A
C234        C242   1.388       .  A
C234        C245   1.416       .  A
C235        H247   1.082       .  S
C235        C236   1.373       .  A
C236        H248   1.082       .  S
C237        H249   1.082       .  S
C237        C238   1.377       .  A
C238        H250   1.082       .  S
C239        H251   1.082       .  S
C239        C240   1.370       .  A
C240        H252   1.082       .  S
C241        H253   1.082       .  S
C241        C242   1.370       .  A
C242        H254   1.082       .  S
C243       C1073   1.477       .  S
C244       C1529   1.483       .  S
C245        C914   1.481       .  S
C246        C890   1.484       .  S
N257        C262   1.350       .  A
N257        C261   1.349       .  A
N257        H289   1.038       .  S
N258        C265   1.353       .  A
N258        C266   1.350       .  A
N259        C264   1.354       .  A
N259        C263   1.353       .  A
N259        H290   1.038   1_554  S
N260        C267   1.350       .  A
N260        C268   1.348       .  A
C261        C269   1.387       .  A
C261        C277   1.409       .  A
C262        C278   1.407   1_565  A
C262        C270   1.387       .  A
C263        C271   1.387       .  A
C263        C280   1.417       .  A
C264        C279   1.418   1_565  A
C264        C272   1.387       .  A
C265        C277   1.410       .  A
C265        C273   1.384       .  A
C266        C280   1.415   1_556  A
C266        C274   1.388       .  A
C267        C275   1.384       .  A
C267        C278   1.406       .  A
C268        C276   1.389       .  A
C268        C279   1.413   1_556  A
C269        H281   1.082       .  S
C269        C270   1.373       .  A
C270        H282   1.082       .  S
C271        H283   1.082       .  S
C271        C272   1.380       .  A
C272        H284   1.082       .  S
C273        H285   1.082       .  S
C273        C274   1.372       .  A
C274        H286   1.082   1_556  S
C275        H287   1.082       .  S
C275        C276   1.371       .  A
C276        H288   1.082       .  S
C277        C857   1.483       .  S
C278        C833   1.476       .  S
C279       C1034   1.488       .  S
C280       C1457   1.485       .  S
C291        N292   1.352       .  A
C291        N296   1.362       .  A
C291        C785   1.482       .  S
N292        C293   1.350       .  A
C293        N294   1.354       .  A
C293        C809   1.478       .  S
N294        C295   1.359       .  A
C295        N296   1.365       .  A
C295        C866   1.485       .  S
C297        N298   1.355       .  A
C297        N302   1.361       .  A
C297        C761   1.485       .  S
N298        C299   1.355       .  A
C299        N300   1.357       .  A
C299        C737   1.484       .  S
N300        C301   1.359       .  A
C301        N302   1.362       .  A
C301        C962   1.486       .  S
C303        N304   1.356       .  A
C303        N308   1.359       .  A
C303        C842   1.473       .  S
N304        C305   1.355       .  A
C305        N306   1.354       .  A
C305        C689   1.470       .  S
N306        C307   1.356       .  A
C307        N308   1.359       .  A
C307        C713   1.474       .  S
C309        N310   1.358       .  A
C309        N314   1.361       .  A
C309        C665   1.485       .  S
N310        C311   1.356       .  A
C311        N312   1.357       .  A
C311        C641   1.486       .  S
N312        C313   1.357       .  A
C313        N314   1.360       .  A
C313        C929   1.478       .  S
C315        N316   1.360       .  A
C315        N320   1.358       .  A
C315        C881   1.481       .  S
N316        C317   1.360       .  A
C317        N318   1.357       .  A
C317        C602   1.488       .  S
N318        C319   1.356       .  A
C319        N320   1.357       .  A
C319        C617   1.482       .  S
C321        N322   1.359       .  A
C321        N326   1.355       .  A
C321        C986   1.481       .  S
N322        C323   1.358       .  A
C323        N324   1.354       .  A
C323        C545   1.471       .  S
N324        C325   1.354       .  A
C325        N326   1.353       .  A
C325        C569   1.466       .  S
C327        N345   1.351       .  A
C327        C364   1.464       .  S
C327        C650   1.481       .  S
N328        N345   1.322       .  A
N328        N350   1.317       .  A
N328       Co365   2.074       .  S
C329        N354   1.340       .  A
C329        C367   1.466       .  S
C329        H374   1.081       .  S
H330        C371   1.081       .  S
C331        N355   1.343       .  A
C331        C335   1.464       .  S
C331        H360   1.081       .  S
Co332       N350   2.075       .  S
Co332       N340   2.068       .  S
Co332       N372   2.062       .  S
Co332       N348   2.080       .  S
Co332      Cl376   2.447       .  S
N333        C371   1.342       .  A
N333        N340   1.319       .  A
N333       Co334   2.090       .  S
Co334       N337   2.075       .  S
Co334       N354   2.082       .  S
Co334       N341   2.086       .  S
Co334      Cl376   2.444       .  S
C335        N373   1.348       .  A
C335        C521   1.475       .  S
N336        N343   1.320       .  A
N336        N366   1.322       .  A
N336       Co369   2.072       .  S
N337        N355   1.319       .  A
N337        N373   1.320       .  A
N338        C367   1.351       .  A
N338        N348   1.324       .  A
H339        C364   1.079       .  S
N340        N361   1.321       .  A
N341        N359   1.320       .  A
N341        N346   1.325       .  A
C342        N346   1.351       .  A
C342        C370   1.455       .  S
C342        C554   1.471       .  S
N343        C358   1.345       .  A
N343       Co365   2.098       .  S
C344        N372   1.334       .  A
C344        C347   1.457       .  S
C344        H378   1.081       .  S
C347        N368   1.352       .  A
C347        C698   1.476       .  S
N348        N354   1.317       .  A
N349        C375   1.335       .  A
N349        N351   1.318       .  A
N349       Co365   2.070       .  S
N350        C364   1.337       .  A
N351        N379   1.327       .  A
N351       Co369   2.090       .  S
H352        C375   1.081       .  S
H353        C370   1.081       .  S
N355       Co369   2.086       .  S
N356        N368   1.325       .  A
N356        N372   1.318       .  A
N356       Co365   2.090       .  S
C357        N361   1.347       .  A
C357        C371   1.465       .  S
C357        C794   1.478       .  S
C358        C377   1.466       .  S
C358        H362   1.081       .  S
N359        C370   1.333       .  A
N359       Co369   2.069       .  S
C363        N379   1.354       .  A
C363        C375   1.456       .  S
C363        C626   1.473       .  S
Co365      Cl376   2.444       .  S
N366        C377   1.347       .  A
C367        C770   1.486       .  S
Co369      Cl376   2.450       .  S
C377        C506   1.481       .  S
C380        N381   1.360       .  A
C380        N385   1.361       .  A
C380        C530   1.486       .  S
N381        C382   1.358       .  A
C382        N383   1.356       .  A
C382        C473   1.486       .  S
N383        C384   1.355       .  A
C384        N385   1.358       .  A
C384        C905   1.479       .  S
C386        N387   1.364       .  A
C386        N391   1.359       .  A
C386       C1010   1.481       .  S
N387        C388   1.363       .  A
C388        N389   1.354       .  A
C388        C497   1.483       .  S
N389        C390   1.353       .  A
C390        N391   1.355       .  A
C390        C458   1.471       .  S
C392        N410   1.350       .  A
C392        C429   1.450       .  S
C392        C818   1.461       .  S
N393        N410   1.325   1_455  A
N393        N415   1.320       .  A
N393       Co430   2.085       .  S
C394        N419   1.340       .  A
C394        C432   1.464       .  S
C394        H439   1.081       .  S
H395        C436   1.081       .  S
C396        N420   1.336   1_655  A
C396        C400   1.455   1_565  S
C396        H425   1.081       .  S
Co397       N415   2.061       .  S
Co397       N405   2.090   1_455  S
Co397       N437   2.084       .  S
Co397       N413   2.069       .  S
Co397      Cl441   2.449       .  S
N398        C436   1.335       .  A
N398        N405   1.318   1_545  A
N398       Co399   2.066   1_655  S
Co399       N402   2.078   1_455  S
Co399       N419   2.081       .  S
Co399       N406   2.071       .  S
Co399      Cl441   2.443   1_545  S
C400        N438   1.350       .  A
C400        C578   1.470       .  S
N401        N408   1.318       .  A
N401        N431   1.322   1_455  A
N401       Co434   2.079       .  S
N402        N420   1.317   1_645  A
N402        N438   1.323       .  A
N403        C432   1.348       .  A
N403        N413   1.321   1_545  A
H404        C429   1.082       .  S
N405        N426   1.325       .  A
N406        N424   1.318   1_545  A
N406        N411   1.321       .  A
C407        N411   1.348       .  A
C407        C435   1.463   1_545  S
C407        C593   1.472       .  S
N408        C423   1.341   1_455  A
N408       Co430   2.081       .  S
C409        N437   1.341       .  A
C409        C412   1.464       .  S
C409        H443   1.081       .  S
C412        N433   1.350       .  A
C412        C674   1.481       .  S
N413        N419   1.318   1_565  A
N414        C440   1.341       .  A
N414        N416   1.319       .  A
N414       Co430   2.086       .  S
N415        C429   1.334   1_455  A
N416        N444   1.319       .  A
N416       Co434   2.061       .  S
H417        C440   1.081       .  S
H418        C435   1.081       .  S
N420       Co434   2.063       .  S
N421        N433   1.322       .  A
N421        N437   1.320       .  A
N421       Co430   2.084       .  S
C422        N426   1.353   1_545  A
C422        C436   1.458       .  S
C422        C746   1.478       .  S
C423        C442   1.466       .  S
C423        H427   1.080       .  S
N424        C435   1.342       .  A
N424       Co434   2.085       .  S
C428        N444   1.345       .  A
C428        C440   1.464       .  S
C428        C449   1.471       .  S
Co430      Cl441   2.446       .  S
N431        C442   1.350       .  A
C432        C722   1.476       .  S
Co434      Cl441   2.443       .  S
C442        C482   1.481       .  S
C445        H455   1.083       .  S
C445        C446   1.405       .  A
C445        C450   1.397       .  A
C446        C451   1.480       .  S
C446        C447   1.408       .  A
C447        C448   1.395       .  A
C447        O452   1.372       .  S
C448        H453   1.084       .  S
C448        C449   1.404       .  A
C449        C450   1.407       .  A
C450        O454   1.371       .  S
C451        C456   1.408       .  A
C451        C460   1.406       .  A
O452        H468   0.992       .  S
O454        H465   0.992       .  S
C456        C457   1.396       .  A
C456        O461   1.373       .  S
C457        H462   1.084       .  S
C457        C458   1.403       .  A
C458        C459   1.408       .  A
C459        C460   1.399       .  A
C459        O463   1.372       .  S
C460        H464   1.083       .  S
O461        H466   0.992       .  S
O463        H467   0.992       .  S
C469        H479   1.084       .  S
C469        C470   1.399       .  A
C469        C474   1.399       .  A
C470        C475   1.473       .  S
C470        C471   1.404       .  A
C471        C472   1.396       .  A
C471        O476   1.372       .  S
C472        H477   1.083       .  S
C472        C473   1.409       .  A
C473        C474   1.414       .  A
C474        O478   1.370       .  S
C475        C480   1.403       .  A
C475        C484   1.401       .  A
O476        H492   0.992       .  S
O478        H489   0.992       .  S
C480        C481   1.397       .  A
C480        O485   1.372       .  S
C481        H486   1.083       .  S
C481        C482   1.407       .  A
C482        C483   1.412       .  A
C483        C484   1.399       .  A
C483        O487   1.370       .  S
C484        H488   1.084       .  S
O485        H490   0.992       .  S
O487        H491   0.992       .  S
C493        H503   1.083       .  S
C493        C494   1.402       .  A
C493        C498   1.399       .  A
C494        C499   1.487       .  S
C494        C495   1.412       .  A
C495        C496   1.401       .  A
C495        O500   1.371       .  S
C496        H501   1.083       .  S
C496        C497   1.403       .  A
C497        C498   1.414       .  A
C498        O502   1.372       .  S
C499        C504   1.412       .  A
C499        C508   1.402       .  A
O500        H516   0.992       .  S
O502        H513   0.992       .  S
C504        C505   1.404       .  A
C504        O509   1.372       .  S
C505        H510   1.083       .  S
C505        C506   1.403       .  A
C506        C507   1.411       .  A
C507        C508   1.398       .  A
C507        O511   1.372       .  S
C508        H512   1.084       .  S
O509        H514   0.992       .  S
O511        H515   0.992       .  S
C517        H527   1.083       .  S
C517        C518   1.403       .  A
C517        C522   1.403       .  A
C518        C523   1.476       .  S
C518        C519   1.406       .  A
C519        C520   1.394       .  A
C519        O524   1.373       .  S
C520        H525   1.083       .  S
C520        C521   1.404       .  A
C521        C522   1.409       .  A
C522        O526   1.371       .  S
C523        C528   1.406       .  A
C523        C532   1.399       .  A
O524        H540   0.992       .  S
O526        H537   0.992       .  S
C528        C529   1.396       .  A
C528        O533   1.372       .  S
C529        H534   1.083       .  S
C529        C530   1.407       .  A
C530        C531   1.415       .  A
C531        C532   1.402       .  A
C531        O535   1.372       .  S
C532        H536   1.084       .  S
O533        H538   0.992       .  S
O535        H539   0.992       .  S
C541        H551   1.084       .  S
C541        C542   1.401       .  A
C541        C546   1.398       .  A
C542        C547   1.475       .  S
C542        C543   1.409       .  A
C543        C544   1.394       .  A
C543        O548   1.372       .  S
C544        H549   1.084       .  S
C544        C545   1.401       .  A
C545        C546   1.411       .  A
C546        O550   1.372       .  S
C547        C552   1.409       .  A
C547        C556   1.400       .  A
O548        H564   0.992       .  S
O550        H561   0.992       .  S
C552        C553   1.400       .  A
C552        O557   1.372       .  S
C553        H558   1.084       .  S
C553        C554   1.403       .  A
C554        C555   1.409       .  A
C555        C556   1.392       .  A
C555        O559   1.371       .  S
C556        H560   1.084       .  S
O557        H562   0.992       .  S
O559        H563   0.992       .  S
C565        H575   1.083       .  S
C565        C566   1.403       .  A
C565        C570   1.394       .  A
C566        C571   1.474       .  S
C566        C567   1.408       .  A
C567        C568   1.395       .  A
C567        O572   1.372       .  S
C568        H573   1.084       .  S
C568        C569   1.402       .  A
C569        C570   1.407       .  A
C570        O574   1.372       .  S
C571        C576   1.406       .  A
C571        C580   1.403       .  A
O572        H588   0.992       .  S
O574        H585   0.992       .  S
C576        C577   1.397       .  A
C576        O581   1.373   1_545  S
C577        H582   1.083   1_545  S
C577        C578   1.404       .  A
C578        C579   1.407       .  A
C579        C580   1.395       .  A
C579        O583   1.372       .  S
C580        H584   1.084       .  S
O581        H586   0.992       .  S
O583        H587   0.992       .  S
C589        H599   1.083       .  S
C589        C590   1.403       .  A
C589        C594   1.404       .  A
C590        C595   1.473       .  S
C590        C591   1.404       .  A
C591        C592   1.393       .  A
C591        O596   1.372       .  S
C592        H597   1.084       .  S
C592        C593   1.403       .  A
C593        C594   1.409       .  A
C594        O598   1.372       .  S
C595        C600   1.402       .  A
C595        C604   1.401       .  A
O596        H612   0.992       .  S
O598        H609   0.992   1_545  S
C600        C601   1.398       .  A
C600        O605   1.372       .  S
C601        H606   1.083       .  S
C601        C602   1.411       .  A
C602        C603   1.414       .  A
C603        C604   1.399       .  A
C603        O607   1.371       .  S
C604        H608   1.084       .  S
O605        H610   0.992       .  S
O607        H611   0.992       .  S
C613        H623   1.083       .  S
C613        C614   1.404       .  A
C613        C618   1.398       .  A
C614        C619   1.482       .  S
C614        C615   1.407       .  A
C615        C616   1.399       .  A
C615        O620   1.372       .  S
C616        H621   1.083       .  S
C616        C617   1.407       .  A
C617        C618   1.411       .  A
C618        O622   1.372       .  S
C619        C624   1.409       .  A
C619        C628   1.403       .  A
O620        H636   0.992       .  S
O622        H633   0.992       .  S
C624        C625   1.401       .  A
C624        O629   1.373       .  S
C625        H630   1.083       .  S
C625        C626   1.402       .  A
C626        C627   1.408       .  A
C627        C628   1.399       .  A
C627        O631   1.373       .  S
C628        H632   1.083       .  S
O629        H634   0.992       .  S
O631        H635   0.992       .  S
C637        H647   1.084       .  S
C637        C638   1.397       .  A
C637        C642   1.398       .  A
C638        C643   1.467       .  S
C638        C639   1.402       .  A
C639        C640   1.396       .  A
C639        O644   1.372       .  S
C640        H645   1.083       .  S
C640        C641   1.409       .  A
C641        C642   1.417       .  A
C642        O646   1.371       .  S
C643        C648   1.402       .  A
C643        C652   1.398       .  A
O644        H660   0.992       .  S
O646        H657   0.992       .  S
C648        C649   1.396       .  A
C648        O653   1.372       .  S
C649        H654   1.083       .  S
C649        C650   1.407       .  A
C650        C651   1.414       .  A
C651        C652   1.398       .  A
C651        O655   1.369       .  S
C652        H656   1.084       .  S
O653        H658   0.992       .  S
O655        H659   0.992       .  S
C661        H671   1.084       .  S
C661        C662   1.400       .  A
C661        C666   1.399       .  A
C662        C667   1.477       .  S
C662        C663   1.407       .  A
C663        C664   1.400       .  A
C663        O668   1.372       .  S
C664        H669   1.083       .  S
C664        C665   1.406       .  A
C665        C666   1.414       .  A
C666        O670   1.371       .  S
C667        C672   1.405       .  A
C667        C676   1.401       .  A
O668        H684   0.992       .  S
O670        H681   0.992       .  S
C672        C673   1.401       .  A
C672        O677   1.371       .  S
C673        H678   1.082       .  S
C673        C674   1.407       .  A
C674        C675   1.411       .  A
C675        C676   1.398       .  A
C675        O679   1.372       .  S
C676        H680   1.084       .  S
O677        H682   0.992       .  S
O679        H683   0.992       .  S
C685        H695   1.084       .  S
C685        C686   1.401       .  A
C685        C690   1.396       .  A
C686        C691   1.470       .  S
C686        C687   1.406       .  A
C687        C688   1.396       .  A
C687        O692   1.372       .  S
C688        H693   1.084       .  S
C688        C689   1.403       .  A
C689        C690   1.410       .  A
C690        O694   1.372       .  S
C691        C696   1.403       .  A
C691        C700   1.401       .  A
O692        H708   0.992       .  S
O694        H705   0.992       .  S
C696        C697   1.393       .  A
C696        O701   1.372       .  S
C697        H702   1.081       .  S
C697        C698   1.406       .  A
C698        C699   1.410       .  A
C699        C700   1.399       .  A
C699        O703   1.371       .  S
C700        H704   1.084       .  S
O701        H706   0.992       .  S
O703        H707   0.992       .  S
C709        H719   1.084       .  S
C709        C710   1.402       .  A
C709        C714   1.396       .  A
C710        C715   1.478       .  S
C710        C711   1.409       .  A
C711        C712   1.399       .  A
C711        O716   1.373       .  S
C712        H717   1.084       .  S
C712        C713   1.403       .  A
C713        C714   1.410       .  A
C714        O718   1.372       .  S
C715        C720   1.406       .  A
C715        C724   1.404       .  A
O716        H732   0.992       .  S
O718        H729   0.992       .  S
C720        C721   1.396       .  A
C720        O725   1.371       .  S
C721        H726   1.084       .  S
C721        C722   1.406       .  A
C722        C723   1.409       .  A
C723        C724   1.397       .  A
C723        O727   1.370       .  S
C724        H728   1.084       .  S
O725        H730   0.992       .  S
O727        H731   0.992       .  S
C733        H743   1.084       .  S
C733        C734   1.402       .  A
C733        C738   1.398       .  A
C734        C739   1.475       .  S
C734        C735   1.403       .  A
C735        C736   1.399       .  A
C735        O740   1.373       .  S
C736        H741   1.083       .  S
C736        C737   1.408       .  A
C737        C738   1.413       .  A
C738        O742   1.371       .  S
C739        C744   1.406       .  A
C739        C748   1.402       .  A
O740        H756   0.992       .  S
O742        H753   0.992       .  S
C744        C745   1.396       .  A
C744        O749   1.372       .  S
C745        H750   1.083       .  S
C745        C746   1.405       .  A
C746        C747   1.410       .  A
C747        C748   1.399       .  A
C747        O751   1.371       .  S
C748        H752   1.084       .  S
O749        H754   0.992       .  S
O751        H755   0.992       .  S
C757        H767   1.084       .  S
C757        C758   1.398       .  A
C757        C762   1.400       .  A
C758        C763   1.474       .  S
C758        C759   1.405       .  A
C759        C760   1.400       .  A
C759        O764   1.372       .  S
C760        H765   1.083       .  S
C760        C761   1.406       .  A
C761        C762   1.416       .  A
C762        O766   1.372       .  S
C763        C768   1.404       .  A
C763        C772   1.400       .  A
O764        H780   0.992       .  S
O766        H777   0.992       .  S
C768        C769   1.397       .  A
C768        O773   1.372       .  S
C769        H774   1.081       .  S
C769        C770   1.406       .  A
C770        C771   1.416       .  A
C771        C772   1.403       .  A
C771        O775   1.371       .  S
C772        H776   1.084       .  S
O773        H778   0.992       .  S
O775        H779   0.992       .  S
C781        H791   1.084       .  S
C781        C782   1.399       .  A
C781        C786   1.392       .  A
C782        C787   1.480       .  S
C782        C783   1.410       .  A
C783        C784   1.404       .  A
C783        O788   1.371       .  S
C784        H789   1.083       .  S
C784        C785   1.405       .  A
C785        C786   1.415       .  A
C786        O790   1.372       .  S
C787        C792   1.409       .  A
C787        C796   1.401       .  A
O788        H804   0.992       .  S
O790        H801   0.992       .  S
C792        C793   1.399       .  A
C792        O797   1.373       .  S
C793        H798   1.083       .  S
C793        C794   1.403       .  A
C794        C795   1.413       .  A
C795        C796   1.399       .  A
C795        O799   1.372       .  S
C796        H800   1.084       .  S
O797        H802   0.992       .  S
O799        H803   0.992       .  S
C805        H815   1.084       .  S
C805        C806   1.402       .  A
C805        C810   1.398       .  A
C806        C811   1.470       .  S
C806        C807   1.402       .  A
C807        C808   1.394       .  A
C807        O812   1.373       .  S
C808        H813   1.083       .  S
C808        C809   1.407       .  A
C809        C810   1.411       .  A
C810        O814   1.371       .  S
C811        C816   1.409       .  A
C811        C820   1.400       .  A
O812        H828   0.992       .  S
O814        H825   0.992       .  S
C816        C817   1.396       .  A
C816        O821   1.372       .  S
C817        H822   1.084       .  S
C817        C818   1.399       .  A
C818        C819   1.407       .  A
C819        C820   1.394       .  A
C819        O823   1.372       .  S
C820        H824   1.084       .  S
O821        H826   0.992       .  S
O823        H827   0.992       .  S
C829        H839   1.083       .  S
C829        C830   1.406       .  A
C829        C834   1.398       .  A
C830        C835   1.483       .  S
C830        C831   1.412       .  A
C831        C832   1.396       .  A
C831        O836   1.372       .  S
C832        H837   1.084       .  S
C832        C833   1.399       .  A
C833        C834   1.404       .  A
C834        O838   1.372   1_545  S
C835        C840   1.411       .  A
C835        C844   1.403       .  A
O836        H852   0.992       .  S
O838        H849   0.992       .  S
C840        C841   1.401       .  A
C840        O845   1.373       .  S
C841        H846   1.084       .  S
C841        C842   1.403       .  A
C842        C843   1.409       .  A
C843        C844   1.395       .  A
C843        O847   1.372       .  S
C844        H848   1.083       .  S
O845        H850   0.992       .  S
O847        H851   0.992       .  S
C853        H863   1.084       .  S
C853        C854   1.403       .  A
C853        C858   1.397       .  A
C854        C859   1.478       .  S
C854        C855   1.408       .  A
C855        C856   1.401       .  A
C855        O860   1.372       .  S
C856        H861   1.083       .  S
C856        C857   1.402       .  A
C857        C858   1.408       .  A
C858        O862   1.372       .  S
C859        C864   1.407       .  A
C859        C868   1.399       .  A
O860        H876   0.992       .  S
O862        H873   0.992       .  S
C864        C865   1.400       .  A
C864        O869   1.371       .  S
C865        H870   1.083       .  S
C865        C866   1.406       .  A
C866        C867   1.416       .  A
C867        C868   1.397       .  A
C867        O871   1.372       .  S
C868        H872   1.084       .  S
O869        H874   0.992       .  S
O871        H875   0.992       .  S
C877        H887   1.084       .  S
C877        C878   1.405       .  A
C877        C882   1.401       .  A
C878        C883   1.484       .  S
C878        C879   1.408       .  A
C879        C880   1.401       .  A
C879        O884   1.373       .  S
C880        H885   1.084       .  S
C880        C881   1.405       .  A
C881        C882   1.410       .  A
C882        O886   1.371       .  S
C883        C888   1.411       .  A
C883        C892   1.406       .  A
O884        H900   0.992       .  S
O886        H897   0.992       .  S
C888        C889   1.399       .  A
C888        O893   1.371       .  S
C889        H894   1.084       .  S
C889        C890   1.402       .  A
C890        C891   1.406       .  A
C891        C892   1.400       .  A
C891        O895   1.371       .  S
C892        H896   1.083       .  S
O893        H898   0.992       .  S
O895        H899   0.992       .  S
C901        H911   1.084       .  S
C901        C902   1.400       .  A
C901        C906   1.396       .  A
C902        C907   1.478       .  S
C902        C903   1.409       .  A
C903        C904   1.400       .  A
C903        O908   1.372       .  S
C904        H909   1.084       .  S
C904        C905   1.404       .  A
C905        C906   1.413       .  A
C906        O910   1.372       .  S
C907        C912   1.409       .  A
C907        C916   1.403       .  A
O908        H924   0.992       .  S
O910        H921   0.992       .  S
C912        C913   1.398       .  A
C912        O917   1.372       .  S
C913        H918   1.084   1_655  S
C913        C914   1.402       .  A
C914        C915   1.406       .  A
C915        C916   1.398       .  A
C915        O919   1.371       .  S
C916        H920   1.084       .  S
O917        H922   0.992       .  S
O919        H923   0.992       .  S
C925        H935   1.084       .  S
C925        C926   1.402       .  A
C925        C930   1.398       .  A
C926        C931   1.483       .  S
C926        C927   1.410       .  A
C927        C928   1.403       .  A
C927        O932   1.373       .  S
C928        H933   1.084       .  S
C928        C929   1.403       .  A
C929        C930   1.410       .  A
C930        O934   1.372       .  S
C931        C936   1.411       .  A
C931        C940   1.405       .  A
O932        H948   0.992       .  S
O934        H945   0.992       .  S
C936        C937   1.399       .  A
C936        O941   1.371       .  S
C937        H942   1.084       .  S
C937        C938   1.401       .  A
C938        C939   1.405       .  A
C939        C940   1.399       .  A
C939        O943   1.371       .  S
C940        H944   1.084       .  S
O941        H946   0.992       .  S
O943        H947   0.992       .  S
C949        H959   1.084       .  S
C949        C950   1.403       .  A
C949        C954   1.397       .  A
C950        C955   1.483       .  S
C950        C951   1.411       .  A
C951        C952   1.404   1_655  A
C951        O956   1.372       .  S
C952        H957   1.083       .  S
C952        C953   1.402   1_455  A
C953        C954   1.408       .  A
C954        O958   1.372       .  S
C955        C960   1.408       .  A
C955        C964   1.403       .  A
O956        H972   0.992   1_655  S
O958        H969   0.992       .  S
C960        C961   1.400       .  A
C960        O965   1.372       .  S
C961        H966   1.083       .  S
C961        C962   1.408       .  A
C962        C963   1.412       .  A
C963        C964   1.400       .  A
C963        O967   1.371       .  S
C964        H968   1.084       .  S
O965        H970   0.992       .  S
O967        H971   0.992       .  S
C973        H983   1.083       .  S
C973        C974   1.404       .  A
C973        C978   1.395       .  A
C974        C979   1.477       .  S
C974        C975   1.410       .  A
C975        C976   1.396       .  A
C975        O980   1.372       .  S
C976        H981   1.084       .  S
C976        C977   1.401       .  A
C977        C978   1.405       .  A
C978        O982   1.371       .  S
C979        C984   1.407       .  A
C979        C988   1.401       .  A
O980        H996   0.992       .  S
O982        H993   0.992       .  S
C984        C985   1.396       .  A
C984        O989   1.372       .  S
C985        H990   1.083       .  S
C985        C986   1.406       .  A
C986        C987   1.415       .  A
C987        C988   1.395       .  A
C987        O991   1.372       .  S
C988        H992   1.084       .  S
O989        H994   0.992       .  S
O991        H995   0.992       .  S
C997       H1007   1.083       .  S
C997        C998   1.405       .  A
C997       C1002   1.401       .  A
C998       C1003   1.486       .  S
C998        C999   1.411       .  A
C999       C1000   1.400       .  A
C999       O1004   1.372       .  S
C1000      H1005   1.084       .  S
C1000      C1001   1.402       .  A
C1001      C1002   1.407       .  A
C1002      O1006   1.372       .  S
C1003      C1008   1.410       .  A
C1003      C1012   1.403       .  A
O1004      H1020   0.992       .  S
O1006      H1017   0.992       .  S
C1008      C1009   1.402       .  A
C1008      O1013   1.371       .  S
C1009      H1014   1.083       .  S
C1009      C1010   1.404       .  A
C1010      C1011   1.412       .  A
C1011      C1012   1.399       .  A
C1011      O1015   1.372       .  S
C1012      H1016   1.084       .  S
O1013      H1018   0.992       .  S
O1015      H1019   0.992       .  S
C1021      H1031   1.084       .  S
C1021      C1022   1.405       .  A
C1021      C1026   1.403       .  A
C1022      C1027   1.483       .  S
C1022      C1023   1.406       .  A
C1023      C1024   1.397       .  A
C1023      O1028   1.373       .  S
C1024      H1029   1.083       .  S
C1024      C1025   1.406       .  A
C1025      C1026   1.412       .  A
C1026      O1030   1.372       .  S
C1027      C1032   1.409       .  A
C1027      C1036   1.406       .  A
O1028      H1044   0.992       .  S
O1030      H1041   0.992       .  S
C1032      C1033   1.396       .  A
C1032      O1037   1.372       .  S
C1033      H1038   1.084       .  S
C1033      C1034   1.404       .  A
C1034      C1035   1.407       .  A
C1035      C1036   1.402       .  A
C1035      O1039   1.371       .  S
C1036      H1040   1.083       .  S
O1037      H1042   0.992       .  S
O1039      H1043   0.992       .  S
C1045      H1055   1.084       .  S
C1045      C1046   1.401       .  A
C1045      C1050   1.397       .  A
C1046      C1051   1.477       .  S
C1046      C1047   1.406       .  A
C1047      C1048   1.402       .  A
C1047      O1052   1.372       .  S
C1048      H1053   1.082       .  S
C1048      C1049   1.406       .  A
C1049      C1050   1.411       .  A
C1050      O1054   1.372       .  S
C1051      C1056   1.406       .  A
C1051      C1060   1.399       .  A
O1052      H1068   0.992       .  S
O1054      H1065   0.992       .  S
C1056      C1057   1.400       .  A
C1056      O1061   1.372       .  S
C1057      H1062   1.083       .  S
C1057      C1058   1.409       .  A
C1058      C1059   1.417       .  A
C1059      C1060   1.398       .  A
C1059      O1063   1.371       .  S
C1060      H1064   1.084       .  S
O1061      H1066   0.992       .  S
O1063      H1067   0.992       .  S
C1069      H1079   1.084       .  S
C1069      C1070   1.405       .  A
C1069      C1074   1.397       .  A
C1070      C1075   1.476       .  S
C1070      C1071   1.408       .  A
C1071      C1072   1.396       .  A
C1071      O1076   1.372       .  S
C1072      H1077   1.084       .  S
C1072      C1073   1.400       .  A
C1073      C1074   1.404       .  A
C1074      O1078   1.371       .  S
C1075      C1080   1.406       .  A
C1075      C1084   1.404       .  A
O1076      H1092   0.992       .  S
O1078      H1089   0.992       .  S
C1080      C1081   1.396       .  A
C1080      O1085   1.372       .  S
C1081      H1086   1.084       .  S
C1081      C1082   1.404       .  A
C1082      C1083   1.408       .  A
C1083      C1084   1.398       .  A
C1083      O1087   1.372       .  S
C1084      H1088   1.084       .  S
O1085      H1090   0.992       .  S
O1087      H1091   0.992       .  S
C1093      H1103   1.084       .  S
C1093      C1094   1.398       .  A
C1093      C1098   1.393       .  A
C1094      C1099   1.472       .  S
C1094      C1095   1.408       .  A
C1095      C1096   1.399       .  A
C1095      O1100   1.373       .  S
C1096      H1101   1.084       .  S
C1096      C1097   1.403       .  A
C1097      C1098   1.412       .  A
C1098      O1102   1.371       .  S
C1099      C1104   1.403       .  A
C1099      C1108   1.404       .  A
O1100      H1116   0.992       .  S
O1102      H1113   0.992       .  S
C1104      C1105   1.391       .  A
C1104      O1109   1.372       .  S
C1105      H1110   1.084       .  S
C1105      C1106   1.405       .  A
C1106      C1107   1.409       .  A
C1107      C1108   1.400       .  A
C1107      O1111   1.371       .  S
C1108      H1112   1.084       .  S
O1109      H1114   0.992       .  S
O1111      H1115   0.992       .  S
C1117      H1127   1.083       .  S
C1117      C1118   1.405       .  A
C1117      C1122   1.400       .  A
C1118      C1123   1.485       .  S
C1118      C1119   1.410       .  A
C1119      C1120   1.401       .  A
C1119      O1124   1.373       .  S
C1120      H1125   1.084       .  S
C1120      C1121   1.403       .  A
C1121      C1122   1.407       .  A
C1122      O1126   1.371       .  S
C1123      C1128   1.408       .  A
C1123      C1132   1.404       .  A
O1124      H1140   0.992       .  S
O1126      H1137   0.992       .  S
C1128      C1129   1.399       .  A
C1128      O1133   1.371       .  S
C1129      H1134   1.083       .  S
C1129      C1130   1.407       .  A
C1130      C1131   1.413       .  A
C1131      C1132   1.401       .  A
C1131      O1135   1.371       .  S
C1132      H1136   1.084       .  S
O1133      H1138   0.992       .  S
O1135      H1139   0.992       .  S
C1141      H1151   1.084       .  S
C1141      C1142   1.402       .  A
C1141      C1146   1.398       .  A
C1142      C1147   1.479       .  S
C1142      C1143   1.407       .  A
C1143      C1144   1.401       .  A
C1143      O1148   1.373       .  S
C1144      H1149   1.083       .  S
C1144      C1145   1.405       .  A
C1145      C1146   1.410       .  A
C1146      O1150   1.371       .  S
C1147      C1152   1.407       .  A
C1147      C1156   1.401       .  A
O1148      H1164   0.992       .  S
O1150      H1161   0.992       .  S
C1152      C1153   1.397       .  A
C1152      O1157   1.372       .  S
C1153      H1158   1.083       .  S
C1153      C1154   1.406       .  A
C1154      C1155   1.413       .  A
C1155      C1156   1.403       .  A
C1155      O1159   1.372       .  S
C1156      H1160   1.084       .  S
O1157      H1162   0.992       .  S
O1159      H1163   0.992       .  S
C1165      H1175   1.083       .  S
C1165      C1166   1.403       .  A
C1165      C1170   1.397       .  A
C1166      C1171   1.478       .  S
C1166      C1167   1.410       .  A
C1167      C1168   1.397       .  A
C1167      O1172   1.372       .  S
C1168      H1173   1.084       .  S
C1168      C1169   1.401       .  A
C1169      C1170   1.408       .  A
C1170      O1174   1.372       .  S
C1171      C1176   1.410       .  A
C1171      C1180   1.403       .  A
O1172      H1188   0.992       .  S
O1174      H1185   0.992       .  S
C1176      C1177   1.400       .  A
C1176      O1181   1.372       .  S
C1177      H1182   1.083       .  S
C1177      C1178   1.401       .  A
C1178      C1179   1.404       .  A
C1179      C1180   1.395       .  A
C1179      O1183   1.372       .  S
C1180      H1184   1.084       .  S
O1181      H1186   0.992       .  S
O1183      H1187   0.992       .  S
C1189      H1199   1.083       .  S
C1189      C1190   1.404       .  A
C1189      C1194   1.396       .  A
C1190      C1195   1.478       .  S
C1190      C1191   1.408       .  A
C1191      C1192   1.395       .  A
C1191      O1196   1.372       .  S
C1192      H1197   1.084       .  S
C1192      C1193   1.404       .  A
C1193      C1194   1.408       .  A
C1194      O1198   1.372       .  S
C1195      C1200   1.408       .  A
C1195      C1204   1.405       .  A
O1196      H1212   0.992       .  S
O1198      H1209   0.992       .  S
C1200      C1201   1.396       .  A
C1200      O1205   1.372       .  S
C1201      H1206   1.084       .  S
C1201      C1202   1.404       .  A
C1202      C1203   1.406       .  A
C1203      C1204   1.396       .  A
C1203      O1207   1.371       .  S
C1204      H1208   1.083       .  S
O1205      H1210   0.992       .  S
O1207      H1211   0.992       .  S
C1213      H1223   1.084       .  S
C1213      C1214   1.401       .  A
C1213      C1218   1.398       .  A
C1214      C1219   1.482       .  S
C1214      C1215   1.407       .  A
C1215      C1216   1.401       .  A
C1215      O1220   1.371       .  S
C1216      H1221   1.083       .  S
C1216      C1217   1.407       .  A
C1217      C1218   1.414       .  A
C1218      O1222   1.371       .  S
C1219      C1224   1.406       .  A
C1219      C1228   1.403       .  A
O1220      H1236   0.992       .  S
O1222      H1233   0.992       .  S
C1224      C1225   1.401       .  A
C1224      O1229   1.372       .  S
C1225      H1230   1.083       .  S
C1225      C1226   1.407       .  A
C1226      C1227   1.410       .  A
C1227      C1228   1.402       .  A
C1227      O1231   1.372       .  S
C1228      H1232   1.084       .  S
O1229      H1234   0.992       .  S
O1231      H1235   0.992       .  S
C1237      H1247   1.084       .  S
C1237      C1238   1.399       .  A
C1237      C1242   1.393       .  A
C1238      C1243   1.471       .  S
C1238      C1239   1.408       .  A
C1239      C1240   1.396       .  A
C1239      O1244   1.372       .  S
C1240      H1245   1.084       .  S
C1240      C1241   1.403       .  A
C1241      C1242   1.412       .  A
C1242      O1246   1.370       .  S
C1243      C1248   1.406       .  A
C1243      C1252   1.400       .  A
O1244      H1260   0.992       .  S
O1246      H1257   0.992       .  S
C1248      C1249   1.395       .  A
C1248      O1253   1.372       .  S
C1249      H1254   1.084       .  S
C1249      C1250   1.403       .  A
C1250      C1251   1.410       .  A
C1251      C1252   1.395       .  A
C1251      O1255   1.372       .  S
C1252      H1256   1.084       .  S
O1253      H1258   0.992       .  S
O1255      H1259   0.992       .  S
C1261      H1271   1.083       .  S
C1261      C1262   1.403       .  A
C1261      C1266   1.402       .  A
C1262      C1267   1.481       .  S
C1262      C1263   1.408       .  A
C1263      C1264   1.397       .  A
C1263      O1268   1.372       .  S
C1264      H1269   1.082       .  S
C1264      C1265   1.404       .  A
C1265      C1266   1.413       .  A
C1266      O1270   1.371       .  S
C1267      C1272   1.406       .  A
C1267      C1276   1.401       .  A
O1268      H1284   0.992       .  S
O1270      H1281   0.992       .  S
C1272      C1273   1.400       .  A
C1272      O1277   1.372       .  S
C1273      H1278   1.083       .  S
C1273      C1274   1.410       .  A
C1274      C1275   1.415       .  A
C1275      C1276   1.399       .  A
C1275      O1279   1.370       .  S
C1276      H1280   1.084       .  S
O1277      H1282   0.992       .  S
O1279      H1283   0.992       .  S
C1285      H1295   1.083       .  S
C1285      C1286   1.401       .  A
C1285      C1290   1.394       .  A
C1286      C1291   1.477       .  S
C1286      C1287   1.410       .  A
C1287      C1288   1.396       .  A
C1287      O1292   1.372       .  S
C1288      H1293   1.083       .  S
C1288      C1289   1.402       .  A
C1289      C1290   1.410       .  A
C1290      O1294   1.372       .  S
C1291      C1296   1.410       .  A
C1291      C1300   1.402       .  A
O1292      H1308   0.992       .  S
O1294      H1305   0.992       .  S
C1296      C1297   1.397       .  A
C1296      O1301   1.372       .  S
C1297      H1302   1.084       .  S
C1297      C1298   1.401       .  A
C1298      C1299   1.409       .  A
C1299      C1300   1.395       .  A
C1299      O1303   1.372       .  S
C1300      H1304   1.084       .  S
O1301      H1306   0.992       .  S
O1303      H1307   0.992       .  S
C1309      H1319   1.084       .  S
C1309      C1310   1.402       .  A
C1309      C1314   1.397       .  A
C1310      C1315   1.477       .  S
C1310      C1311   1.406       .  A
C1311      C1312   1.396       .  A
C1311      O1316   1.372       .  S
C1312      H1317   1.083       .  S
C1312      C1313   1.407       .  A
C1313      C1314   1.413       .  A
C1314      O1318   1.372       .  S
C1315      C1320   1.410       .  A
C1315      C1324   1.403       .  A
O1316      H1332   0.992       .  S
O1318      H1329   0.992       .  S
C1320      C1321   1.397       .  A
C1320      O1325   1.372       .  S
C1321      H1326   1.084       .  S
C1321      C1322   1.400       .  A
C1322      C1323   1.405       .  A
C1323      C1324   1.395       .  A
C1323      O1327   1.371   1_655  S
C1324      H1328   1.083       .  S
O1325      H1330   0.992       .  S
O1327      H1331   0.992       .  S
C1333      H1343   1.084       .  S
C1333      C1334   1.400       .  A
C1333      C1338   1.390       .  A
C1334      C1339   1.471       .  S
C1334      C1335   1.408       .  A
C1335      C1336   1.399       .  A
C1335      O1340   1.372       .  S
C1336      H1341   1.084       .  S
C1336      C1337   1.403       .  A
C1337      C1338   1.408       .  A
C1338      O1342   1.371       .  S
C1339      C1344   1.408       .  A
C1339      C1348   1.400       .  A
O1340      H1356   0.992       .  S
O1342      H1353   0.992       .  S
C1344      C1345   1.395       .  A
C1344      O1349   1.373       .  S
C1345      H1350   1.084       .  S
C1345      C1346   1.401       .  A
C1346      C1347   1.411       .  A
C1347      C1348   1.396       .  A
C1347      O1351   1.372       .  S
C1348      H1352   1.084       .  S
O1349      H1354   0.992       .  S
O1351      H1355   0.992       .  S
C1357      H1367   1.084       .  S
C1357      C1358   1.400       .  A
C1357      C1362   1.393       .  A
C1358      C1363   1.471       .  S
C1358      C1359   1.407       .  A
C1359      C1360   1.396       .  A
C1359      O1364   1.372       .  S
C1360      H1365   1.084       .  S
C1360      C1361   1.404       .  A
C1361      C1362   1.410       .  A
C1362      O1366   1.372       .  S
C1363      C1368   1.407       .  A
C1363      C1372   1.400       .  A
O1364      H1380   0.992       .  S
O1366      H1377   0.992       .  S
C1368      C1369   1.395       .  A
C1368      O1373   1.372       .  S
C1369      H1374   1.084       .  S
C1369      C1370   1.401       .  A
C1370      C1371   1.411       .  A
C1371      C1372   1.396       .  A
C1371      O1375   1.371       .  S
C1372      H1376   1.084       .  S
O1373      H1378   0.992       .  S
O1375      H1379   0.992       .  S
C1381      H1391   1.084       .  S
C1381      C1382   1.403       .  A
C1381      C1386   1.399       .  A
C1382      C1387   1.481       .  S
C1382      C1383   1.409       .  A
C1383      C1384   1.400       .  A
C1383      O1388   1.373       .  S
C1384      H1389   1.084       .  S
C1384      C1385   1.402       .  A
C1385      C1386   1.410       .  A
C1386      O1390   1.372       .  S
C1387      C1392   1.410       .  A
C1387      C1396   1.405       .  A
O1388      H1404   0.992       .  S
O1390      H1401   0.992       .  S
C1392      C1393   1.397       .  A
C1392      O1397   1.371       .  S
C1393      H1398   1.084       .  S
C1393      C1394   1.401       .  A
C1394      C1395   1.406       .  A
C1395      C1396   1.398       .  A
C1395      O1399   1.371       .  S
C1396      H1400   1.084       .  S
O1397      H1402   0.992       .  S
O1399      H1403   0.992       .  S
C1405      H1415   1.084       .  S
C1405      C1406   1.398       .  A
C1405      C1410   1.395       .  A
C1406      C1411   1.464       .  S
C1406      C1407   1.401       .  A
C1407      C1408   1.396       .  A
C1407      O1412   1.371       .  S
C1408      H1413   1.082       .  S
C1408      C1409   1.408       .  A
C1409      C1410   1.412       .  A
C1410      O1414   1.371       .  S
C1411      C1416   1.399       .  A
C1411      C1420   1.399       .  A
O1412      H1428   0.992       .  S
O1414      H1425   0.992       .  S
C1416      C1417   1.395       .  A
C1416      O1421   1.372       .  S
C1417      H1422   1.082       .  S
C1417      C1418   1.410       .  A
C1418      C1419   1.415       .  A
C1419      C1420   1.397       .  A
C1419      O1423   1.371       .  S
C1420      H1424   1.084       .  S
O1421      H1426   0.992       .  S
O1423      H1427   0.992       .  S
C1429      H1439   1.084       .  S
C1429      C1430   1.402       .  A
C1429      C1434   1.395       .  A
C1430      C1435   1.475       .  S
C1430      C1431   1.405       .  A
C1431      C1432   1.401       .  A
C1431      O1436   1.372       .  S
C1432      H1437   1.082       .  S
C1432      C1433   1.406       .  A
C1433      C1434   1.409       .  A
C1434      O1438   1.372       .  S
C1435      C1440   1.407       .  A
C1435      C1444   1.398       .  A
O1436      H1452   0.992       .  S
O1438      H1449   0.992       .  S
C1440      C1441   1.398       .  A
C1440      O1445   1.372       .  S
C1441      H1446   1.083       .  S
C1441      C1442   1.407       .  A
C1442      C1443   1.416       .  A
C1443      C1444   1.398       .  A
C1443      O1447   1.372       .  S
C1444      H1448   1.084       .  S
O1445      H1450   0.992       .  S
O1447      H1451   0.992       .  S
C1453      H1463   1.083       .  S
C1453      C1454   1.405       .  A
C1453      C1458   1.397       .  A
C1454      C1459   1.487       .  S
C1454      C1455   1.412       .  A
C1455      C1456   1.402       .  A
C1455      O1460   1.371       .  S
C1456      H1461   1.083       .  S
C1456      C1457   1.402       .  A
C1457      C1458   1.407       .  A
C1458      O1462   1.371       .  S
C1459      C1464   1.407       .  A
C1459      C1468   1.405       .  A
O1460      H1476   0.992       .  S
O1462      H1473   0.992       .  S
C1464      C1465   1.399       .  A
C1464      O1469   1.373       .  S
C1465      H1470   1.083       .  S
C1465      C1466   1.407       .  A
C1466      C1467   1.413       .  A
C1467      C1468   1.402       .  A
C1467      O1471   1.371       .  S
C1468      H1472   1.083       .  S
O1469      H1474   0.992       .  S
O1471      H1475   0.992       .  S
C1477      H1487   1.084       .  S
C1477      C1478   1.398       .  A
C1477      C1482   1.395       .  A
C1478      C1483   1.471       .  S
C1478      C1479   1.403       .  A
C1479      C1480   1.401       .  A
C1479      O1484   1.371       .  S
C1480      H1485   1.083       .  S
C1480      C1481   1.410       .  A
C1481      C1482   1.415       .  A
C1482      O1486   1.371       .  S
C1483      C1488   1.405       .  A
C1483      C1492   1.397       .  A
O1484      H1500   0.992       .  S
O1486      H1497   0.992       .  S
C1488      C1489   1.400       .  A
C1488      O1493   1.371       .  S
C1489      H1494   1.082       .  S
C1489      C1490   1.406       .  A
C1490      C1491   1.415       .  A
C1491      C1492   1.397       .  A
C1491      O1495   1.372       .  S
C1492      H1496   1.084       .  S
O1493      H1498   0.991       .  S
O1495      H1499   0.992       .  S
C1501      H1511   1.083       .  S
C1501      C1502   1.402       .  A
C1501      C1506   1.398       .  A
C1502      C1507   1.479       .  S
C1502      C1503   1.406       .  A
C1503      C1504   1.399       .  A
C1503      O1508   1.372       .  S
C1504      H1509   1.083       .  S
C1504      C1505   1.409       .  A
C1505      C1506   1.414       .  A
C1506      O1510   1.372       .  S
C1507      C1512   1.407       .  A
C1507      C1516   1.403       .  A
O1508      H1524   0.992       .  S
O1510      H1521   0.992       .  S
C1512      C1513   1.401       .  A
C1512      O1517   1.372       .  S
C1513      H1518   1.083       .  S
C1513      C1514   1.405       .  A
C1514      C1515   1.409       .  A
C1515      C1516   1.396       .  A
C1515      O1519   1.372       .  S
C1516      H1520   1.084       .  S
O1517      H1522   0.992       .  S
O1519      H1523   0.992       .  S
C1525      H1535   1.083       .  S
C1525      C1526   1.406       .  A
C1525      C1530   1.399       .  A
C1526      C1531   1.487       .  S
C1526      C1527   1.412       .  A
C1527      C1528   1.398       .  A
C1527      O1532   1.371       .  S
C1528      H1533   1.084       .  S
C1528      C1529   1.400       .  A
C1529      C1530   1.405       .  A
C1530      O1534   1.372   1_655  S
C1531      C1536   1.412       .  A
C1531      C1540   1.406       .  A
O1532      H1548   0.992       .  S
O1534      H1545   0.992       .  S
C1536      C1537   1.399       .  A
C1536      O1541   1.371       .  S
C1537      H1542   1.084       .  S
C1537      C1538   1.401       .  A
C1538      C1539   1.408       .  A
C1539      C1540   1.398       .  A
C1539      O1543   1.372       .  S
C1540      H1544   1.083       .  S
O1541      H1546   0.992       .  S
O1543      H1547   0.992       .  S
C1549      H1559   1.084       .  S
C1549      C1550   1.404       .  A
C1549      C1554   1.398       .  A
C1550      C1555   1.478       .  S
C1550      C1551   1.407       .  A
C1551      C1552   1.395       .  A
C1551      O1556   1.372       .  S
C1552      H1557   1.084       .  S
C1552      C1553   1.405       .  A
C1553      C1554   1.410       .  A
C1554      O1558   1.371       .  S
C1555      C1560   1.406       .  A
C1555      C1564   1.405       .  A
O1556      H1572   0.992       .  S
O1558      H1569   0.992       .  S
C1560      C1561   1.392       .  A
C1560      O1565   1.372       .  S
C1561      H1566   1.082       .  S
C1561      C1562   1.405       .  A
C1562      C1563   1.408       .  A
C1563      C1564   1.400       .  A
C1563      O1567   1.371       .  S
C1564      H1568   1.083       .  S
O1565      H1570   0.992       .  S
O1567      H1571   0.992       .  S
C1573      H1583   1.084       .  S
C1573      C1574   1.399       .  A
C1573      C1578   1.397       .  A
C1574      C1579   1.475       .  S
C1574      C1575   1.408       .  A
C1575      C1576   1.399       .  A
C1575      O1580   1.373       .  S
C1576      H1581   1.083       .  S
C1576      C1577   1.403       .  A
C1577      C1578   1.412       .  A
C1578      O1582   1.372   1_655  S
C1579      C1584   1.406       .  A
C1579      C1588   1.404       .  A
O1580      H1596   0.992       .  S
O1582      H1593   0.992       .  S
C1584      C1585   1.395       .  A
C1584      O1589   1.372       .  S
C1585      H1590   1.084       .  S
C1585      C1586   1.402       .  A
C1586      C1587   1.406       .  A
C1587      C1588   1.399       .  A
C1587      O1591   1.372       .  S
C1588      H1592   1.084       .  S
O1589      H1594   0.992       .  S
O1591      H1595   0.992       .  S
