geometry optimzed in LAMMPS
_audit_creation_date              2020-12-01 
_audit_creation_method            'lammps2cif' 
_symmetry_space_group_name_H-M    'P1' 
_symmetry_Int_Tables_number       1 
_symmetry_cell_setting            triclinic 
loop_ 
_symmetry_equiv_pos_as_xyz 
  x,y,z 
_cell_length_a                    25.58876021 
_cell_length_b                    25.05749505639872 
_cell_length_c                    25.488762727017985 
_cell_angle_alpha                 90.52303587280298 
_cell_angle_beta                  89.23873616831372 
_cell_angle_gamma                 89.95547402623082 
loop_ 
_atom_site_label 
_atom_site_type_symbol 
_atom_site_fract_x 
_atom_site_fract_y 
_atom_site_fract_z 
_atom_site_charge 
N1          N  0.05848343  0.89391436  0.06797857    -0.06300
N2          N  0.09227586  0.85468749  0.07393773    -0.58400
N3          N  0.94754147  0.94055375  0.11893150    -0.06000
N4          N  0.91419745  0.93636534  0.15863939    -0.60600
N5          N  0.93916626  0.90304885  0.08359171    -0.05600
N6          N  0.90016821  0.87213990  0.09889333    -0.58400
N7          N  0.06615997  0.93174985  0.10321250    -0.05300
N8          N  0.10454588  0.91813210  0.13483683    -0.60900
C9          C  0.12076327  0.87016791  0.11557734     0.95900
C10         C  0.88480154  0.89371355  0.14560434     0.95600
N11         N  0.94683460  0.09927337  0.07843233    -0.06500
N12         N  0.90914758  0.13308954  0.09313316    -0.59000
N13         N  0.07154153  0.06123713  0.09860292    -0.04600
N14         N  0.10934843  0.07599356  0.13064070    -0.60300
N15         N  0.06711425  0.09608126  0.06053587    -0.06500
N16         N  0.10238347  0.13413109  0.06510976    -0.59300
N17         N  0.95304146  0.06320844  0.11508385    -0.04300
N18         N  0.92018637  0.07109412  0.15455732    -0.60400
Mn19       Mn  0.01057174  0.99922587  0.10990452     1.18400
C20         C  0.89284753  0.11446327  0.14077556     0.97900
C21         C  0.12869452  0.12113530  0.10862890     0.98600
N22         N  0.92580808  0.89541127  0.95799732    -0.06600
N23         N  0.89208345  0.85637256  0.94958202    -0.62900
N24         N  0.04411920  0.92328561  0.90821661    -0.05400
N25         N  0.07825858  0.90837204  0.87130218    -0.63500
N26         N  0.04433522  0.88871428  0.94680922    -0.06100
N27         N  0.07826488  0.85015200  0.93736053    -0.63100
N28         N  0.92464930  0.92987140  0.91916968    -0.05000
N29         N  0.89023475  0.91447881  0.88371538    -0.63800
Mn30       Mn  0.99132495  0.89446106  0.01430982     1.10700
C31         C  0.86982959  0.86882632  0.90343510     0.99200
C32         C  0.09926179  0.86272745  0.89040464     0.99200
N33         N  0.05392433  0.09078436  0.93761136    -0.06100
N34         N  0.09113634  0.12425449  0.92253607    -0.61400
N35         N  0.93045238  0.05992446  0.91464075    -0.05400
N36         N  0.89589205  0.07597952  0.87960874    -0.58200
N37         N  0.93497022  0.09647307  0.95192844    -0.06700
N38         N  0.90368422  0.13722333  0.94326811    -0.61000
N39         N  0.05003086  0.05118167  0.90347890    -0.05700
N40         N  0.08473824  0.05668661  0.86501906    -0.58200
Mn41       Mn  0.00028569  0.09683734  0.00719232     1.20200
Mn42       Mn  0.98704123  0.99109275  0.91001382     1.10100
Cl43       Cl  0.99714839  0.99545374  0.01018260    -0.86200
C44         C  0.11014735  0.10233429  0.87730632     0.96200
C45         C  0.87929094  0.12418996  0.89840000     0.96000
C46         C  0.78427795  0.80003550  0.79447144    -0.02700
C47         C  0.77821808  0.79528767  0.20073347    -0.02700
N48         N  0.56647632  0.77486313  0.99222618    -0.36800
N49         N  0.48835273  0.77041213  0.91113197    -0.57400
N50         N  0.41150395  0.77204057  0.99611815    -0.36800
N51         N  0.49006136  0.76951772  0.07636312    -0.57400
C52         C  0.59443713  0.76130840  0.94884394     0.26800
C53         C  0.59544045  0.76120464  0.03391459     0.26800
C54         C  0.38275580  0.75926856  0.95388921     0.26800
C55         C  0.38333462  0.75783798  0.03891879     0.26800
C56         C  0.53015996  0.78444525  0.88164154     0.35400
C57         C  0.44564375  0.78393242  0.88390134     0.35400
C58         C  0.53223346  0.78271723  0.10471149     0.35400
C59         C  0.44788817  0.78082428  0.10657618     0.35400
C60         C  0.64128027  0.73799070  0.96305308    -0.22100
C61         C  0.64188393  0.73786846  0.01690615    -0.22100
C62         C  0.33621117  0.73576329  0.96986479    -0.22100
C63         C  0.33641883  0.73514709  0.02367114    -0.22100
C64         C  0.51418263  0.80605377  0.83466385    -0.23100
C65         C  0.46021252  0.80576969  0.83611283    -0.23100
C66         C  0.51697780  0.80171982  0.15381514    -0.23100
C67         C  0.46311800  0.80024994  0.15509252    -0.23100
C68         C  0.58206624  0.77664618  0.89740035    -0.18500
C69         C  0.58386948  0.77562661  0.08639184    -0.18500
C70         C  0.39632841  0.77098150  0.09095369    -0.18500
C71         C  0.39417346  0.77532153  0.90217635    -0.18500
H72         H  0.67259957  0.72449671  0.93719945     0.14400
H73         H  0.67368846  0.72408390  0.04089222     0.14400
H74         H  0.30446285  0.72256888  0.94527410     0.14400
H75         H  0.30479551  0.72125326  0.04858781     0.14400
H76         H  0.53872278  0.82071565  0.80304249     0.12700
H77         H  0.43474735  0.82020552  0.80578568     0.12700
H78         H  0.54188256  0.81505104  0.18530145     0.12700
H79         H  0.43812427  0.81204670  0.18777815     0.12700
H80         H  0.53241367  0.79752509  0.99329189     0.26000
H81         H  0.44566555  0.79443210  0.99582242     0.26000
C82         C  0.78973379  0.19833294  0.79707838    -0.02700
N83         N  0.78602367  0.00150108  0.57390793    -0.36800
N84         N  0.78779573  0.91649981  0.49687870    -0.57400
N85         N  0.78151664  0.00014914  0.41866186    -0.36800
N86         N  0.78657847  0.08507238  0.49683013    -0.57400
C87         C  0.80491784  0.95882682  0.59945971     0.26800
C88         C  0.80364873  0.04524492  0.59933871     0.26800
C89         C  0.79184142  0.95639781  0.38887119     0.26800
C90         C  0.79280154  0.04311197  0.38881988     0.26800
C91         C  0.77728983  0.88742630  0.54006337     0.35400
C92         C  0.77429114  0.88649968  0.45512504     0.28300
C93         C  0.77457221  0.11471285  0.53978086     0.35400
C94         C  0.77393027  0.11420655  0.45475976     0.35400
C95         C  0.83609727  0.97552535  0.64053453    -0.22100
C96         C  0.83530855  0.03032490  0.64045048    -0.22100
C97         C  0.81020834  0.97175663  0.33980641    -0.22100
C98         C  0.81087096  0.02635561  0.33979358    -0.22100
C99         C  0.75729700  0.83807484  0.52567822    -0.23100
C100        C  0.75610175  0.83724140  0.47148936    -0.23100
C101        C  0.75417570  0.16350415  0.52502448    -0.23100
C102        C  0.75448586  0.16344663  0.47075403    -0.23100
C103        C  0.78779805  0.90599526  0.59130849    -0.18500
C104        C  0.78495383  0.09740253  0.59109593    -0.18500
C105        C  0.78235570  0.09686003  0.40260824    -0.18500
C106        C  0.78034422  0.90321695  0.40280076    -0.18500
H107        H  0.85529013  0.95067873  0.66898683     0.14400
H108        H  0.85376544  0.05632597  0.66884079     0.14400
H109        H  0.82080542  0.94638047  0.30677763     0.14400
H110        H  0.82198529  0.05082239  0.30671339     0.14400
H111        H  0.74472114  0.80613479  0.55111704     0.12700
H112        H  0.74281261  0.80456799  0.44702684     0.12700
H113        H  0.74081542  0.19575203  0.55031042     0.12700
H114        H  0.74152777  0.19557652  0.44597758     0.12700
H115        H  0.75772284  0.00080682  0.54486206     0.26000
H116        H  0.76367990  0.00059147  0.45550938     0.26000
C117        C  0.78421276  0.20980760  0.20367922    -0.02700
N118        N  0.57125288  0.21013567  0.99942966    -0.36800
N119        N  0.49231274  0.20742299  0.08165420    -0.57400
N120        N  0.41369979  0.20008674  0.00008441    -0.36800
N121        N  0.49326044  0.21007280  0.91728855    -0.57400
C122        C  0.59938963  0.22361093  0.04202796     0.26800
C123        C  0.59949765  0.22511876  0.95695221     0.26800
C124        C  0.38263541  0.20726035  0.04304770     0.26800
C125        C  0.38333523  0.20651380  0.95750247     0.26800
C126        C  0.53481750  0.20161818  0.11187498     0.35400
C127        C  0.45017225  0.19868925  0.11269983     0.35400
C128        C  0.53646921  0.20305485  0.88700169     0.35400
C129        C  0.45188632  0.19831495  0.88702368     0.35400
C130        C  0.64582671  0.24763557  0.02643000    -0.22100
C131        C  0.64577633  0.24880620  0.97269301    -0.22100
C132        C  0.33179255  0.21706622  0.02726531    -0.22100
C133        C  0.33231170  0.21694859  0.97368684    -0.22100
C134        C  0.51977559  0.18969907  0.16282036    -0.23100
C135        C  0.46591019  0.18826349  0.16345597    -0.23100
C136        C  0.52257218  0.18757711  0.83677508    -0.23100
C137        C  0.46871503  0.18504919  0.83665749    -0.23100
C138        C  0.58653222  0.21046874  0.09427758    -0.18500
C139        C  0.58788720  0.21179606  0.90451347    -0.18500
C140        C  0.39925402  0.20073714  0.90428019    -0.18500
C141        C  0.39785948  0.20307254  0.09621483    -0.18500
H142        H  0.67709120  0.26174966  0.05112529     0.14400
H143        H  0.67704508  0.26372894  0.94785755     0.14400
H144        H  0.29723051  0.22293993  0.05148492     0.14400
H145        H  0.29842237  0.22319759  0.94955963     0.14400
H146        H  0.54487314  0.18382299  0.19613014     0.12700
H147        H  0.44121109  0.18066854  0.19736421     0.12700
H148        H  0.54841326  0.17916174  0.80377173     0.12700
H149        H  0.44474107  0.17402072  0.80361801     0.12700
H150        H  0.53768006  0.18740677  0.99914198     0.26000
H151        H  0.45233721  0.18920551  0.99970357     0.26000
C152        C  0.19951052  0.80179909  0.78942761    -0.02700
N153        N  0.99224653  0.58738091  0.78660966    -0.36800
N154        N  0.07578530  0.50637099  0.79209937    -0.57400
N155        N  0.99651970  0.42549219  0.81121394    -0.36800
N156        N  0.91093561  0.50022972  0.80520669    -0.57400
C157        C  0.03166468  0.60033472  0.75348450     0.26800
C158        C  0.94790097  0.59532077  0.75997795     0.26800
C159        C  0.04049403  0.39919991  0.82502636     0.26800
C160        C  0.95554156  0.39534773  0.82747110     0.26800
C161        C  0.10563596  0.54869762  0.77907059     0.35400
C162        C  0.10826350  0.46441794  0.79593892     0.35400
C163        C  0.87875918  0.54156117  0.79471405     0.35400
C164        C  0.88185015  0.45526455  0.80544624     0.35400
C165        C  0.01254167  0.61390466  0.70484444    -0.22100
C166        C  0.95899487  0.61092689  0.70903762    -0.22100
C167        C  0.02707817  0.35272396  0.85117037    -0.22100
C168        C  0.97368422  0.35059064  0.85312700    -0.22100
C169        C  0.15758792  0.53363847  0.77429233    -0.23100
C170        C  0.15922696  0.47986195  0.78487232    -0.23100
C171        C  0.82834558  0.52272803  0.78801347    -0.23100
C172        C  0.83039636  0.46795518  0.79447847    -0.23100
C173        C  0.08450788  0.59881319  0.76670197    -0.18500
C174        C  0.89768700  0.59312536  0.78230772    -0.18500
C175        C  0.90237092  0.40356250  0.81487664    -0.18500
C176        C  0.09237026  0.41286659  0.81056354    -0.18500
H177        H  0.03488309  0.62446460  0.67011380     0.14400
H178        H  0.93120185  0.62028267  0.67881585     0.14400
H179        H  0.05289181  0.32256422  0.86637463     0.14400
H180        H  0.95067648  0.31868210  0.87005172     0.14400
H181        H  0.19034821  0.55795495  0.76191922     0.12700
H182        H  0.19383567  0.45499144  0.78440592     0.12700
H183        H  0.79470586  0.54474222  0.77480349     0.12700
H184        H  0.79798647  0.44072937  0.78985700     0.12700
H185        H  0.99535157  0.57650196  0.82592711     0.26000
H186        H  0.99455612  0.45916381  0.78777148     0.26000
C187        C  0.19800946  0.20842042  0.80320834    -0.02700
N188        N  0.22464756  0.00616418  0.42708002    -0.36800
N189        N  0.21517321  0.08925072  0.50642932    -0.57400
N190        N  0.23571696  0.00844564  0.58493159    -0.36800
N191        N  0.25268056  0.92650334  0.50414221    -0.57400
C192        C  0.21952570  0.04952499  0.39612192     0.26800
C193        C  0.23454120  0.96379766  0.39511384     0.26800
C194        C  0.24876589  0.05593434  0.60641713     0.26800
C195        C  0.26951505  0.97234186  0.60388603     0.26800
C196        C  0.19998365  0.11834526  0.46538274     0.35400
C197        C  0.20423859  0.11828159  0.54985750     0.35400
C198        C  0.25188361  0.89371313  0.46206865     0.35400
C199        C  0.26189445  0.89586664  0.54627273     0.35400
C200        C  0.22590589  0.03412146  0.34392267    -0.22100
C201        C  0.23502257  0.98029965  0.34330583    -0.22100
C202        C  0.29175516  0.05037127  0.63828241    -0.22100
C203        C  0.30626980  0.99760611  0.63484238    -0.22100
C204        C  0.17977926  0.16691296  0.48271000    -0.23100
C205        C  0.18187399  0.16655847  0.53675981    -0.23100
C206        C  0.26295031  0.84193820  0.47692792    -0.23100
C207        C  0.27064324  0.84353909  0.53022434    -0.23100
C208        C  0.20730324  0.10246125  0.41274544    -0.18500
C209        C  0.24171886  0.91010022  0.41050252    -0.18500
C210        C  0.26369698  0.91675079  0.59793321    -0.18500
C211        C  0.22042750  0.10316389  0.59979148    -0.18500
H212        H  0.22322264  0.05877130  0.30941857     0.14400
H213        H  0.24131581  0.95612941  0.30838354     0.14400
H214        H  0.31104976  0.08108099  0.66094832     0.14400
H215        H  0.33859285  0.97922761  0.65490105     0.14400
H216        H  0.16543595  0.19921964  0.45895342     0.12700
H217        H  0.17049904  0.19878684  0.56307804     0.12700
H218        H  0.26667394  0.80704656  0.45180427     0.12700
H219        H  0.28362072  0.81035089  0.55356087     0.12700
H220        H  0.21993325  0.00499853  0.46741536     0.26000
H221        H  0.20297158  0.00044988  0.56212078     0.26000
C222        C  0.20181167  0.20648655  0.21383934    -0.02700
C223        C  0.20680572  0.79329247  0.21746748    -0.02700
N224        N  0.99008127  0.58400505  0.21966095    -0.36800
N225        N  0.07000661  0.50157569  0.23082189    -0.57400
N226        N  0.98734990  0.42321956  0.22247494    -0.36800
N227        N  0.90795605  0.50508718  0.21790207    -0.57400
C228        C  0.03160227  0.61354079  0.23435894     0.26800
C229        C  0.94714901  0.61515944  0.22513467     0.26800
C230        C  0.02863255  0.39357953  0.23716051     0.26800
C231        C  0.94376795  0.39566999  0.23560904     0.26800
C232        C  0.10086797  0.54438270  0.22270433     0.35400
C233        C  0.09956884  0.45803935  0.22018783     0.35400
C234        C  0.87963749  0.54765570  0.20376668     0.35400
C235        C  0.87777459  0.46212096  0.20917755     0.35400
C236        C  0.01486413  0.66425698  0.24922810    -0.22100
C237        C  0.96158876  0.66531400  0.24327430    -0.22100
C238        C  0.01127555  0.34684056  0.26017826    -0.22100
C239        C  0.95768702  0.34801664  0.25903721    -0.22100
C240        C  0.15078762  0.52809354  0.20806961    -0.23100
C241        C  0.14981222  0.47316894  0.20589740    -0.23100
C242        C  0.83075040  0.53189994  0.18668895    -0.23100
C243        C  0.82952792  0.47732387  0.19023142    -0.23100
C244        C  0.08451662  0.59775604  0.22959956    -0.18500
C245        C  0.89589184  0.60055429  0.21084657    -0.18500
C246        C  0.89235948  0.41001459  0.22200062    -0.18500
C247        C  0.08144259  0.40518229  0.22542712    -0.18500
H248        H  0.03867196  0.69755598  0.26181303     0.14400
H249        H  0.93656944  0.69950236  0.25056401     0.14400
H250        H  0.03490588  0.31465370  0.27511579     0.14400
H251        H  0.93221379  0.31657785  0.27282954     0.14400
H252        H  0.18415395  0.55314984  0.19929132     0.12700
H253        H  0.18233437  0.44752455  0.19515749     0.12700
H254        H  0.79900661  0.55709924  0.17408734     0.12700
H255        H  0.79667807  0.45195102  0.18086465     0.12700
H256        H  0.99149260  0.54614124  0.20303693     0.26000
H257        H  0.98916806  0.45779543  0.20036466     0.26000
C258        C  0.15991018  0.71321366  0.17548681    -0.13500
C259        C  0.17870301  0.73850235  0.22128250     0.08600
C260        C  0.17370597  0.71012166  0.26902879    -0.13500
C261        C  0.14580874  0.66226935  0.27146367    -0.13500
C262        C  0.12344195  0.64094300  0.22620377     0.08600
C263        C  0.13197421  0.66568392  0.17806718    -0.13500
H264        H  0.16635136  0.72972155  0.13720774     0.12600
H265        H  0.19082693  0.72443678  0.30499520     0.12600
H266        H  0.13995231  0.64295962  0.30892998     0.12600
H267        H  0.11544039  0.64900000  0.14260921     0.12600
C268        C  0.18955456  0.30362798  0.24474912    -0.13500
C269        C  0.17340188  0.26119670  0.21160775     0.08600
C270        C  0.12934145  0.27013144  0.18000139    -0.13500
C271        C  0.10254893  0.31845247  0.18205114    -0.13500
C272        C  0.11716696  0.35892314  0.21715730     0.08600
C273        C  0.16150761  0.35160350  0.24788939    -0.13500
H274        H  0.22315827  0.29880898  0.26964810     0.12600
H275        H  0.11363595  0.24004925  0.15431965     0.12600
H276        H  0.06829192  0.32328444  0.15798430     0.12600
H277        H  0.17323314  0.38209125  0.27570869     0.12600
C278        C  0.27805475  0.85312880  0.33804261    -0.13500
C279        C  0.23540096  0.86913654  0.36916011     0.08600
C280        C  0.18482676  0.85474949  0.35464739    -0.13500
C281        C  0.17647986  0.82846577  0.30718040    -0.13500
C282        C  0.21856979  0.81605455  0.27275003     0.08600
C283        C  0.26989783  0.82636696  0.29056798    -0.13500
H284        H  0.31737156  0.86420567  0.34897599     0.12600
H285        H  0.15151529  0.86695735  0.37855231     0.12600
H286        H  0.13667216  0.81943866  0.29624397     0.12600
H287        H  0.30416866  0.81589073  0.26751369     0.12600
C288        C  0.25189094  0.16003022  0.34795899    -0.13500
C289        C  0.20508677  0.14337359  0.37158618     0.08600
C290        C  0.15741662  0.15680495  0.34902320    -0.13500
C291        C  0.15685817  0.18146907  0.30015512    -0.13500
C292        C  0.20395918  0.19096330  0.27217313     0.08600
C293        C  0.25144672  0.18406318  0.29895760    -0.13500
H294        H  0.28901842  0.15042595  0.36553414     0.12600
H295        H  0.12091909  0.14469678  0.36730795     0.12600
H296        H  0.11953231  0.18915402  0.28213454     0.12600
H297        H  0.28872746  0.19450382  0.28153500     0.12600
C298        C  0.15918967  0.15389461  0.72567144    -0.13500
C299        C  0.20022223  0.18449526  0.74696738     0.08600
C300        C  0.24323288  0.19636730  0.71347129    -0.13500
C301        C  0.24855226  0.17247593  0.66410820    -0.13500
C302        C  0.21038582  0.13727109  0.64626920     0.08600
C303        C  0.16480398  0.12962359  0.67629570    -0.13500
H304        H  0.12301847  0.14784802  0.74715888     0.12600
H305        H  0.27392703  0.22302584  0.72588740     0.12600
H306        H  0.28348523  0.17965331  0.64076506     0.12600
H307        H  0.13428286  0.10345680  0.66216625     0.12600
C308        C  0.15403475  0.34805944  0.85073926    -0.13500
C309        C  0.13017694  0.36843431  0.80616291     0.08600
C310        C  0.13349677  0.34010722  0.75870674    -0.13500
C311        C  0.15745535  0.29015004  0.75631833    -0.13500
C312        C  0.17838868  0.26691984  0.80184179     0.08600
C313        C  0.17731676  0.29766115  0.84877290    -0.13500
H314        H  0.15110874  0.36931731  0.88785223     0.12600
H315        H  0.11452853  0.35528284  0.72412537     0.12600
H316        H  0.15662678  0.26914799  0.71914351     0.12600
H317        H  0.19290654  0.28147865  0.88459146     0.12600
C318        C  0.23899197  0.87918754  0.74125391    -0.13500
C319        C  0.21632970  0.82836798  0.73782833     0.08600
C320        C  0.21232612  0.80480434  0.68774200    -0.13500
C321        C  0.22651803  0.83325623  0.64281332    -0.13500
C322        C  0.25091348  0.88383613  0.64616686     0.08600
C323        C  0.25607085  0.90589581  0.69705435    -0.13500
H324        H  0.24325340  0.89888142  0.77897701     0.12600
H325        H  0.19738954  0.76491717  0.68228488     0.12600
H326        H  0.21543402  0.81560534  0.60601377     0.12600
H327        H  0.27107248  0.94499492  0.70478511     0.12600
C328        C  0.12706460  0.74428896  0.75033816    -0.13500
C329        C  0.17142856  0.74758053  0.78222662     0.08600
C330        C  0.18453219  0.70194160  0.81139141    -0.13500
C331        C  0.15695526  0.65424015  0.80555668    -0.13500
C332        C  0.11572566  0.64962305  0.76977931     0.08600
C333        C  0.10058815  0.69615985  0.74317811    -0.13500
H334        H  0.11318840  0.77931448  0.73015983     0.12600
H335        H  0.21467901  0.70307299  0.84066658     0.12600
H336        H  0.16695672  0.62155497  0.83096162     0.12600
H337        H  0.06760638  0.69672598  0.71743613     0.12600
C338        C  0.33344683  0.15846401  0.15540218    -0.13500
C339        C  0.35536566  0.20556870  0.13615849     0.08600
C340        C  0.32991075  0.25425839  0.14581271    -0.13500
C341        C  0.28092019  0.25549110  0.17052222    -0.13500
C342        C  0.25720687  0.20806848  0.18862838     0.08600
C343        C  0.28543175  0.15978714  0.18203201    -0.13500
H344        H  0.35226172  0.12043048  0.14756703     0.12600
H345        H  0.34605367  0.29086892  0.13017510     0.12600
H346        H  0.26168801  0.29371419  0.17354213     0.12600
H347        H  0.26908753  0.12253459  0.19585201     0.12600
C348        C  0.33774381  0.24770325  0.84646587    -0.13500
C349        C  0.35667096  0.19944121  0.86561470     0.08600
C350        C  0.32635177  0.15326980  0.86041200    -0.13500
C351        C  0.27615738  0.15605068  0.83965656    -0.13500
C352        C  0.25413011  0.20545008  0.82539312     0.08600
C353        C  0.28737597  0.25073092  0.82645432    -0.13500
H354        H  0.36062210  0.28384628  0.85039204     0.12600
H355        H  0.34034432  0.11564641  0.87543728     0.12600
H356        H  0.25451105  0.11940032  0.83627923     0.12600
H357        H  0.27491679  0.28898566  0.81188561     0.12600
C358        C  0.81671484  0.29732751  0.16366130    -0.13500
C359        C  0.80260846  0.26838815  0.20900673     0.08600
C360        C  0.80555115  0.29541226  0.25796704    -0.13500
C361        C  0.83143164  0.34411353  0.26207686    -0.13500
C362        C  0.85358650  0.36710527  0.21734171     0.08600
C363        C  0.84349498  0.34537084  0.16790111    -0.13500
H364        H  0.80971382  0.28164401  0.12475413     0.12600
H365        H  0.78955312  0.27863851  0.29361352     0.12600
H366        H  0.83709694  0.36211174  0.30038324     0.12600
H367        H  0.85860111  0.36427673  0.13278239     0.12600
C368        C  0.64567644  0.25096515  0.16052676    -0.13500
C369        C  0.63066860  0.20650460  0.13087062     0.08600
C370        C  0.66380102  0.16203929  0.12742289    -0.13500
C371        C  0.71262397  0.16297275  0.15116867    -0.13500
C372        C  0.73005067  0.20904006  0.17792326     0.08600
C373        C  0.69451660  0.25206362  0.18431223    -0.13500
H374        H  0.62063540  0.28578755  0.16309568     0.12600
H375        H  0.65272436  0.12746766  0.10430303     0.12600
H376        H  0.73720288  0.12791096  0.14772782     0.12600
H377        H  0.70450907  0.28721437  0.20695045     0.12600
C378        C  0.73433360  0.13658634  0.32869378    -0.13500
C379        C  0.77954518  0.13498936  0.35885739     0.08600
C380        C  0.82537812  0.15877337  0.33986166    -0.13500
C381        C  0.82654994  0.18187792  0.29018672    -0.13500
C382        C  0.78154503  0.18290091  0.25846694     0.08600
C383        C  0.73500513  0.16063026  0.27950172    -0.13500
H384        H  0.69904214  0.11691146  0.34227808     0.12600
H385        H  0.86106819  0.15646000  0.36210828     0.12600
H386        H  0.86296401  0.19877782  0.27597047     0.12600
H387        H  0.69889294  0.16027676  0.25807537     0.12600
C388        C  0.79741766  0.29626794  0.83368442    -0.13500
C389        C  0.81681247  0.25392034  0.80142002     0.08600
C390        C  0.86524872  0.26216963  0.77593115    -0.13500
C391        C  0.88988253  0.31181779  0.77730730    -0.13500
C392        C  0.86990106  0.35406132  0.80837709     0.08600
C393        C  0.82369652  0.34541111  0.83719837    -0.13500
H394        H  0.76296799  0.29141540  0.85809750     0.12600
H395        H  0.88358881  0.23014652  0.75356719     0.12600
H396        H  0.92620822  0.31665358  0.75555335     0.12600
H397        H  0.80871775  0.37604764  0.86360128     0.12600
C398        C  0.71954886  0.16148666  0.86153949    -0.13500
C399        C  0.73471237  0.19876312  0.82306066     0.08600
C400        C  0.69615693  0.23443864  0.80488011    -0.13500
C401        C  0.64654049  0.23700457  0.82868603    -0.13500
C402        C  0.63369501  0.20219393  0.86947958     0.08600
C403        C  0.66978018  0.16311291  0.88404157    -0.13500
H404        H  0.74551656  0.13056057  0.87470461     0.12600
H405        H  0.70551259  0.26203376  0.77368466     0.12600
H406        H  0.61920632  0.26753720  0.81697700     0.12600
H407        H  0.66022895  0.13554668  0.91525003     0.12600
C408        C  0.75624710  0.12941281  0.73245737    -0.13500
C409        C  0.78068620  0.17926661  0.73988786     0.08600
C410        C  0.79577542  0.20767292  0.69429363    -0.13500
C411        C  0.79528574  0.18277557  0.64467935    -0.13500
C412        C  0.77524367  0.13097370  0.63897703     0.08600
C413        C  0.75189376  0.10672077  0.68283894    -0.13500
H414        H  0.74208088  0.10674115  0.76567852     0.12600
H415        H  0.81007142  0.24808033  0.69626785     0.12600
H416        H  0.81279545  0.20304235  0.61151706     0.12600
H417        H  0.73439133  0.06748817  0.67942883     0.12600
C418        C  0.33114031  0.73289066  0.15315112    -0.13500
C419        C  0.35292128  0.77753037  0.12888372     0.08600
C420        C  0.32906091  0.82747460  0.13500828    -0.13500
C421        C  0.28258100  0.83245776  0.16376238    -0.13500
C422        C  0.25806437  0.78716570  0.18555095     0.08600
C423        C  0.28440051  0.73758933  0.18144638    -0.13500
H424        H  0.34941892  0.69408830  0.14856419     0.12600
H425        H  0.34578227  0.86230306  0.11635348     0.12600
H426        H  0.26530779  0.87169833  0.16837716     0.12600
H427        H  0.26917648  0.70206964  0.19991066     0.12600
C428        C  0.31162592  0.82424302  0.88716576    -0.13500
C429        C  0.34880169  0.78709549  0.86892174     0.08600
C430        C  0.33845258  0.75647133  0.82419188    -0.13500
C431        C  0.29049182  0.76163365  0.79920795    -0.13500
C432        C  0.25110710  0.79605726  0.81955434     0.08600
C433        C  0.26331987  0.82849851  0.86317846    -0.13500
H434        H  0.31939770  0.84858993  0.92154188     0.12600
H435        H  0.36667810  0.72746971  0.80972540     0.12600
H436        H  0.28334620  0.73770521  0.76444065     0.12600
H437        H  0.23638277  0.85804430  0.87867284     0.12600
C438        C  0.72981161  0.84380079  0.27810931    -0.13500
C439        C  0.77522462  0.81923099  0.25699397     0.08600
C440        C  0.82012793  0.81750451  0.28881616    -0.13500
C441        C  0.81968369  0.83907262  0.33938000    -0.13500
C442        C  0.77500866  0.86484298  0.35894395     0.08600
C443        C  0.72989195  0.86638770  0.32842069    -0.13500
H444        H  0.69470158  0.84799343  0.25543093     0.12600
H445        H  0.85611638  0.79999993  0.27381482     0.12600
H446        H  0.85544412  0.83940338  0.36165462     0.12600
H447        H  0.69575898  0.88816044  0.34233068     0.12600
C448        C  0.80025355  0.70756068  0.24895511    -0.13500
C449        C  0.79745139  0.73677231  0.20182894     0.08600
C450        C  0.81532987  0.71114269  0.15526853    -0.13500
C451        C  0.84635925  0.66556522  0.15781343    -0.13500
C452        C  0.85656529  0.64287120  0.20644912     0.08600
C453        C  0.83063874  0.66167581  0.25141460    -0.13500
H454        H  0.78138242  0.72127688  0.28480117     0.12600
H455        H  0.80845683  0.72801958  0.11709990     0.12600
H456        H  0.86398810  0.64922055  0.12228296     0.12600
H457        H  0.83602812  0.64232405  0.28879276     0.12600
C458        C  0.63749776  0.75591307  0.16574772    -0.13500
C459        C  0.62872528  0.78640066  0.12098716     0.08600
C460        C  0.66626619  0.82372517  0.10497588    -0.13500
C461        C  0.71347051  0.82818111  0.13101470    -0.13500
C462        C  0.72455414  0.79518628  0.17410045     0.08600
C463        C  0.68479431  0.76053218  0.19226274    -0.13500
H464        H  0.60879393  0.72700649  0.17875429     0.12600
H465        H  0.65978784  0.84799209  0.07068227     0.12600
H466        H  0.74123339  0.85706542  0.11628845     0.12600
H467        H  0.69115169  0.73570142  0.22612237     0.12600
C468        C  0.71128047  0.83366261  0.85790086    -0.13500
C469        C  0.72817899  0.79809075  0.81783290     0.08600
C470        C  0.69047894  0.76325598  0.79616184    -0.13500
C471        C  0.64074550  0.75819283  0.81935218    -0.13500
C472        C  0.62687278  0.79016019  0.86266909     0.08600
C473        C  0.66139922  0.82978527  0.87969684    -0.13500
H474        H  0.73615633  0.86468128  0.87327891     0.12600
H475        H  0.70079142  0.73765308  0.76315948     0.12600
H476        H  0.61433895  0.72762569  0.80536683     0.12600
H477        H  0.65078643  0.85562903  0.91247320     0.12600
C478        C  0.79606829  0.79479788  0.69205409    -0.13500
C479        C  0.77857907  0.82185885  0.73814406     0.08600
C480        C  0.75562685  0.87249826  0.73200608    -0.13500
C481        C  0.75453115  0.89693379  0.68326687    -0.13500
C482        C  0.77872276  0.87300118  0.63913254     0.08600
C483        C  0.79814572  0.82093916  0.64365109    -0.13500
H484        H  0.81013897  0.75422839  0.69287731     0.12600
H485        H  0.73998793  0.89419786  0.76563163     0.12600
H486        H  0.73766571  0.93649544  0.68075661     0.12600
H487        H  0.81673073  0.80112169  0.61042356     0.12600
C488        C  0.79114502  0.69774734  0.81662816    -0.13500
C489        C  0.81247885  0.74498610  0.79503616     0.08600
C490        C  0.86374737  0.74188604  0.77494288    -0.13500
C491        C  0.88999030  0.69343678  0.77060760    -0.13500
C492        C  0.86677874  0.64483654  0.78663359     0.08600
C493        C  0.81782044  0.64867600  0.81245541    -0.13500
H494        H  0.75439390  0.69807486  0.83788133     0.12600
H495        H  0.88332194  0.77746911  0.76097684     0.12600
H496        H  0.92940252  0.69544001  0.75527048     0.12600
H497        H  0.80043156  0.61451922  0.83130887     0.12600
C498        C  0.81957136  0.83951363  0.82494844    -0.16600
C499        C  0.83380240  0.83222600  0.87526864    -0.31800
H500        H  0.83513337  0.87406962  0.80452926     0.12400
H501        H  0.81969981  0.79727326  0.89597884     0.13000
C502        C  0.82684817  0.15727255  0.82254863    -0.16600
C503        C  0.84303612  0.16191574  0.87254799    -0.31800
H504        H  0.84140768  0.12374972  0.79921948     0.12400
H505        H  0.82997167  0.19617249  0.89563612     0.13000
C506        C  0.15970279  0.83917920  0.81683318    -0.16600
C507        C  0.13842420  0.82820818  0.86390177    -0.31800
H508        H  0.14698929  0.87509570  0.79702084     0.12400
H509        H  0.15038129  0.79226533  0.88404156     0.13000
C510        C  0.84409725  0.87131483  0.18055559    -0.16600
C511        C  0.81836325  0.82654806  0.16710721    -0.31800
H512        H  0.83681456  0.89146337  0.21771419     0.12400
H513        H  0.82584601  0.81166444  0.12766224     0.13000
C514        C  0.16994808  0.83384885  0.19070706    -0.16600
C515        C  0.16116265  0.83564715  0.13866610    -0.31800
H516        H  0.14921369  0.86300793  0.21496222     0.12400
H517        H  0.18201244  0.80914356  0.11192192     0.13000
C518        C  0.85238749  0.13768700  0.17658951    -0.16600
C519        C  0.82406608  0.18141489  0.16589907    -0.31800
H520        H  0.84672138  0.11709820  0.21336601     0.12400
H521        H  0.82926842  0.19736630  0.12678799     0.13000
C522        C  0.15153895  0.12600753  0.84339080    -0.16600
C523        C  0.15906551  0.17928399  0.84062371    -0.31800
H524        H  0.17239595  0.09930689  0.81674468     0.12400
H525        H  0.13328734  0.20363656  0.86525462     0.13000
C526        C  0.16612090  0.15828225  0.13324484    -0.16600
C527        C  0.17103131  0.16176390  0.18564814    -0.31800
H528        H  0.18419123  0.18847689  0.10866213     0.12400
H529        H  0.15212425  0.13103737  0.20899203     0.13000
loop_ 
_geom_bond_atom_site_label_1 
_geom_bond_atom_site_label_2 
_geom_bond_distance 
_geom_bond_site_symmetry_2 
_ccdc_geom_bond_type 
N1            N2   1.320       .  A
N1            N7   1.317       .  A
N1          Mn30   2.211   1_455  S
N2            C9   1.350       .  A
N3            N5   1.315       .  A
N3            N4   1.320       .  A
N3          Mn19   2.194   1_655  S
N4           C10   1.349       .  A
N5            N6   1.321       .  A
N5          Mn30   2.208       .  S
N6           C10   1.356       .  A
N7            N8   1.325       .  A
N7          Mn19   2.213       .  S
N8            C9   1.357       .  A
C9          C515   1.479       .  S
C10         C510   1.476       .  S
N11          N17   1.317       .  A
N11          N12   1.331       .  A
N11         Mn41   2.259   1_655  S
N12          C20   1.365       .  A
N13          N14   1.325       .  A
N13          N15   1.317       .  A
N13         Mn19   2.221   1_545  S
N14          C21   1.358       .  A
N15          N16   1.319       .  A
N15         Mn41   2.199       .  S
N16          C21   1.348       .  A
N17          N18   1.316       .  A
N17         Mn19   2.178   1_645  S
N18          C20   1.344       .  A
Mn19        Cl43   2.570   1_455  S
C20         C518   1.486       .  S
C21         C526   1.478       .  S
N22          N23   1.323       .  A
N22          N28   1.320       .  A
N22         Mn30   2.222   1_556  S
N23          C31   1.353       .  A
N24          N26   1.317       .  A
N24          N25   1.326       .  A
N24         Mn42   2.239   1_455  S
N25          C32   1.360       .  A
N26          N27   1.317       .  A
N26         Mn30   2.180   1_456  S
N27          C32   1.346       .  A
N28          N29   1.325       .  A
N28         Mn42   2.226       .  S
N29          C31   1.356       .  A
Mn30        Cl43   2.538       .  S
C31         C499   1.488       .  S
C32         C507   1.476       .  S
N33          N34   1.325       .  A
N33          N39   1.318       .  A
N33         Mn41   2.232   1_556  S
N34          C44   1.357       .  A
N35          N36   1.330       .  A
N35          N37   1.320       .  A
N35         Mn42   2.252   1_545  S
N36          C45   1.361       .  A
N37          N38   1.319       .  A
N37         Mn41   2.200   1_656  S
N38          C45   1.348       .  A
N39          N40   1.322       .  A
N39         Mn42   2.212   1_445  S
N40          C44   1.352       .  A
Mn41        Cl43   2.544   1_445  S
Mn42        Cl43   2.571   1_556  S
C44         C522   1.486       .  S
C45         C503   1.488       .  S
C46         C469   1.548       .  S
C46         C479   1.550       .  S
C46         C489   1.557       .  S
C46         C498   1.550       .  S
C47         C439   1.550       .  S
C47         C449   1.547       .  S
C47         C462   1.540       .  S
C47         C511   1.547       .  S
N48          C53   1.350   1_556  A
N48          C52   1.350       .  A
N48          H80   1.040       .  S
N49          C56   1.348       .  A
N49          C57   1.347       .  A
N50          C55   1.350   1_556  A
N50          C54   1.348       .  A
N50          H81   1.039       .  S
N51          C58   1.346       .  A
N51          C59   1.346       .  A
C52          C60   1.387       .  A
C52          C68   1.410       .  A
C53          C69   1.410       .  A
C53          C61   1.387       .  A
C54          C62   1.387       .  A
C54          C71   1.409       .  A
C55          C70   1.408       .  A
C55          C63   1.387       .  A
C56          C68   1.407       .  A
C56          C64   1.385       .  A
C57          C71   1.409       .  A
C57          C65   1.387       .  A
C58          C66   1.386       .  A
C58          C69   1.406       .  A
C59          C67   1.386       .  A
C59          C70   1.405       .  A
C60          C61   1.373   1_556  A
C60          H72   1.083       .  S
C61          H73   1.083       .  S
C62          C63   1.372   1_556  A
C62          H74   1.083       .  S
C63          H75   1.082       .  S
C64          C65   1.381       .  A
C64          H76   1.082       .  S
C65          H77   1.082       .  S
C66          C67   1.379       .  A
C66          H78   1.082       .  S
C67          H79   1.082       .  S
C68         C472   1.481       .  S
C69         C459   1.480       .  S
C70         C419   1.471       .  S
C71         C429   1.478       .  S
C82         C389   1.560       .  S
C82         C399   1.548       .  S
C82         C409   1.550       .  S
C82         C502   1.552       .  S
N83          C88   1.349       .  A
N83          C87   1.350   1_545  A
N83         H115   1.043       .  S
N84          C91   1.350       .  A
N84          C92   1.346       .  A
N85          C90   1.353       .  A
N85          C89   1.352   1_545  A
N85         H116   1.039       .  S
N86          C93   1.349       .  A
N86          C94   1.346       .  A
C87          C95   1.387       .  A
C87         C103   1.409       .  A
C88         C104   1.410       .  A
C88          C96   1.387       .  A
C89          C97   1.388       .  A
C89         C106   1.412       .  A
C90         C105   1.413       .  A
C90          C98   1.388       .  A
C91         C103   1.412       .  A
C91          C99   1.387       .  A
C92         C106   1.408       .  A
C92         C100   1.385       .  A
C93         C101   1.386       .  A
C93         C104   1.410       .  A
C94         C102   1.386       .  A
C94         C105   1.409       .  A
C95          C96   1.373   1_565  A
C95         H107   1.083       .  S
C96         H108   1.083       .  S
C97          C98   1.368   1_565  A
C97         H109   1.082       .  S
C98         H110   1.082       .  S
C99         C100   1.382       .  A
C99         H111   1.081       .  S
C100        H112   1.082       .  S
C101        C102   1.383       .  A
C101        H113   1.081       .  S
C102        H114   1.082       .  S
C103        C482   1.495       .  S
C104        C412   1.494       .  S
C105        C379   1.478       .  S
C106        C442   1.476       .  S
C117        C359   1.547       .  S
C117        C372   1.541       .  S
C117        C382   1.557       .  S
C117        C519   1.560       .  S
N118        C123   1.350       .  A
N118        C122   1.351   1_556  A
N118        H150   1.031       .  S
N119        C126   1.350       .  A
N119        C127   1.348       .  A
N120        C125   1.354   1_554  A
N120        C124   1.355       .  A
N120        H151   1.025   1_554  S
N121        C128   1.351       .  A
N121        C129   1.349       .  A
C122        C130   1.388       .  A
C122        C138   1.410       .  A
C123        C139   1.410       .  A
C123        C131   1.387       .  A
C124        C132   1.389       .  A
C124        C141   1.420       .  A
C125        C140   1.417       .  A
C125        C133   1.388       .  A
C126        C138   1.410       .  A
C126        C134   1.385       .  A
C127        C141   1.413       .  A
C127        C135   1.387       .  A
C128        C136   1.385       .  A
C128        C139   1.412       .  A
C129        C137   1.386       .  A
C129        C140   1.412       .  A
C130        C131   1.370   1_554  A
C130        H142   1.082       .  S
C131        H143   1.083       .  S
C132        C133   1.366   1_554  A
C132        H144   1.081       .  S
C133        H145   1.082       .  S
C134        C135   1.379       .  A
C134        H146   1.082       .  S
C135        H147   1.082       .  S
C136        C137   1.380       .  A
C136        H148   1.082       .  S
C137        H149   1.082       .  S
C138        C369   1.478       .  S
C139        C402   1.482       .  S
C140        C349   1.479       .  S
C141        C339   1.481       .  S
C152        C319   1.536       .  S
C152        C329   1.548       .  S
C152        C432   1.543       .  S
C152        C506   1.540       .  S
N153        C158   1.346       .  A
N153        C157   1.349   1_655  A
N153        H185   1.045       .  S
N154        C161   1.349       .  A
N154        C162   1.345       .  A
N155        C160   1.355       .  A
N155        C159   1.356   1_655  A
N155        H186   1.040       .  S
N156        C163   1.353       .  A
N156        C164   1.351       .  A
C157        C165   1.384       .  A
C157        C173   1.398       .  A
C158        C174   1.400       .  A
C158        C166   1.385       .  A
C159        C167   1.388       .  A
C159        C176   1.416       .  A
C160        C175   1.417       .  A
C160        C168   1.386       .  A
C161        C173   1.407       .  A
C161        C169   1.385       .  A
C162        C176   1.407       .  A
C162        C170   1.387       .  A
C163        C171   1.386       .  A
C163        C174   1.417       .  A
C164        C172   1.387       .  A
C164        C175   1.421       .  A
C165        C166   1.375   1_455  A
C165        H177   1.082       .  S
C166        H178   1.082       .  S
C167        C168   1.368   1_455  A
C167        H179   1.081       .  S
C168        H180   1.083       .  S
C169        C170   1.377       .  A
C169        H181   1.082       .  S
C170        H182   1.082       .  S
C171        C172   1.385       .  A
C171        H183   1.081       .  S
C172        H184   1.081       .  S
C173        C332   1.506       .  S
C174        C492   1.520       .  S
C175        C392   1.503       .  S
C176        C309   1.477       .  S
C187        C299   1.549       .  S
C187        C312   1.550       .  S
C187        C352   1.552       .  S
C187        C523   1.557       .  S
N188        C193   1.354   1_545  A
N188        C192   1.356       .  A
N188        H220   1.034       .  S
N189        C196   1.342       .  A
N189        C197   1.345       .  A
N190        C195   1.348   1_545  A
N190        C194   1.349       .  A
N190        H221   1.045       .  S
N191        C198   1.345       .  A
N191        C199   1.349       .  A
C192        C200   1.389       .  A
C192        C208   1.422       .  A
C193        C209   1.417       .  A
C193        C201   1.387       .  A
C194        C202   1.384       .  A
C194        C211   1.400       .  A
C195        C210   1.408       .  A
C195        C203   1.385       .  A
C196        C208   1.406       .  A
C196        C204   1.388       .  A
C197        C211   1.399       .  A
C197        C205   1.383       .  A
C198        C206   1.385       .  A
C198        C209   1.408       .  A
C199        C207   1.387       .  A
C199        C210   1.414       .  A
C200        C201   1.368   1_545  A
C200        H212   1.082       .  S
C201        H213   1.082       .  S
C202        C203   1.375   1_545  A
C202        H214   1.082       .  S
C203        H215   1.083       .  S
C204        C205   1.380       .  A
C204        H216   1.082       .  S
C205        H217   1.082       .  S
C206        C207   1.375       .  A
C206        H218   1.082       .  S
C207        H219   1.081       .  S
C208        C289   1.475       .  S
C209        C279   1.475       .  S
C210        C322   1.519       .  S
C211        C302   1.474       .  S
C222        C269   1.553       .  S
C222        C292   1.542       .  S
C222        C342   1.549       .  S
C222        C527   1.547       .  S
C223        C259   1.554       .  S
C223        C282   1.549       .  S
C223        C422   1.541       .  S
C223        C514   1.554       .  S
N224        C229   1.352       .  A
N224        C228   1.350   1_655  A
N224        H256   1.036       .  S
N225        C232   1.348       .  A
N225        C233   1.350       .  A
N226        C231   1.352       .  A
N226        C230   1.350   1_655  A
N226        H257   1.039       .  S
N227        C234   1.344       .  A
N227        C235   1.344       .  A
C228        C236   1.389       .  A
C228        C244   1.414       .  A
C229        C245   1.413       .  A
C229        C237   1.387       .  A
C230        C238   1.385       .  A
C230        C247   1.411       .  A
C231        C246   1.412       .  A
C231        C239   1.388       .  A
C232        C244   1.410       .  A
C232        C240   1.386       .  A
C233        C247   1.411       .  A
C233        C241   1.386       .  A
C234        C242   1.386       .  A
C234        C245   1.400       .  A
C235        C243   1.386       .  A
C235        C246   1.400       .  A
C236        C237   1.374   1_455  A
C236        H248   1.082       .  S
C237        H249   1.082       .  S
C238        C239   1.372   1_455  A
C238        H250   1.083       .  S
C239        H251   1.081       .  S
C240        C241   1.377       .  A
C240        H252   1.082       .  S
C241        H253   1.082       .  S
C242        C243   1.372       .  A
C242        H254   1.082       .  S
C243        H255   1.082       .  S
C244        C262   1.474       .  S
C245        C452   1.467       .  S
C246        C362   1.469       .  S
C247        C272   1.487       .  S
C258        C259   1.413       .  A
C258        C263   1.391       .  A
C258        H264   1.074       .  S
C259        C260   1.419       .  A
C260        C261   1.397       .  A
C260        H265   1.080       .  S
C261        C262   1.397       .  A
C261        H266   1.083       .  S
C262        C263   1.394       .  A
C263        H267   1.084       .  S
C268        C269   1.417       .  A
C268        C273   1.401       .  A
C268        H274   1.083       .  S
C269        C270   1.413       .  A
C270        C271   1.391       .  A
C270        H275   1.075       .  S
C271        C272   1.401       .  A
C271        H276   1.084       .  S
C272        C273   1.400       .  A
C273        H277   1.083       .  S
C278        C279   1.397       .  A
C278        C283   1.396       .  A
C278        H284   1.083       .  S
C279        C280   1.397       .  A
C280        C281   1.391       .  A
C280        H285   1.083       .  S
C281        C282   1.413       .  A
C281        H286   1.083       .  S
C282        C283   1.419       .  A
C283        H287   1.080       .  S
C288        C289   1.399       .  A
C288        C293   1.392       .  A
C288        H294   1.084       .  S
C289        C290   1.398       .  A
C290        C291   1.396       .  A
C290        H295   1.083       .  S
C291        C292   1.414       .  A
C291        H296   1.083       .  S
C292        C293   1.413       .  A
C293        H297   1.080       .  S
C298        C299   1.412       .  A
C298        C303   1.398       .  A
C298        H304   1.081       .  S
C299        C300   1.417       .  A
C300        C301   1.393       .  A
C300        H305   1.080       .  S
C301        C302   1.394       .  A
C301        H306   1.083       .  S
C302        C303   1.401       .  A
C303        H307   1.083       .  S
C308        C309   1.397       .  A
C308        C313   1.396       .  A
C308        H314   1.083       .  S
C309        C310   1.398       .  A
C310        C311   1.394       .  A
C310        H315   1.084       .  S
C311        C312   1.414       .  A
C311        H316   1.080       .  S
C312        C313   1.417       .  A
C313        H317   1.083       .  S
C318        C319   1.402       .  A
C318        C323   1.382       .  A
C318        H324   1.084       .  S
C319        C320   1.407       .  A
C320        C321   1.399       .  A
C320        H325   1.079       .  S
C321        C322   1.416       .  A
C321        H326   1.075       .  S
C322        C323   1.413       .  A
C323        H327   1.070       .  S
C328        C329   1.407       .  A
C328        C333   1.395       .  A
C328        H334   1.083       .  S
C329        C330   1.412       .  A
C330        C331   1.396       .  A
C330        H335   1.081       .  S
C331        C332   1.408       .  A
C331        H336   1.081       .  S
C332        C333   1.411       .  A
C333        H337   1.076       .  S
C338        C339   1.397       .  A
C338        C343   1.396       .  A
C338        H344   1.083       .  S
C339        C340   1.401       .  A
C340        C341   1.396       .  A
C340        H345   1.083       .  S
C341        C342   1.413       .  A
C341        H346   1.078       .  S
C342        C343   1.416       .  A
C343        H347   1.083       .  S
C348        C349   1.397       .  A
C348        C353   1.395       .  A
C348        H354   1.083       .  S
C349        C350   1.400       .  A
C350        C351   1.398       .  A
C350        H355   1.083       .  S
C351        C352   1.412       .  A
C351        H356   1.076       .  S
C352        C353   1.419       .  A
C353        H357   1.081       .  S
C358        C359   1.413       .  A
C358        C363   1.390       .  A
C358        H364   1.081       .  S
C359        C360   1.417       .  A
C360        C361   1.393       .  A
C360        H365   1.080       .  S
C361        C362   1.396       .  A
C361        H366   1.083       .  S
C362        C363   1.396       .  A
C363        H367   1.083       .  S
C368        C369   1.398       .  A
C368        C373   1.396       .  A
C368        H374   1.083       .  S
C369        C370   1.401       .  A
C370        C371   1.396       .  A
C370        H375   1.083       .  S
C371        C372   1.411       .  A
C371        H376   1.082       .  S
C372        C373   1.417       .  A
C373        H377   1.081       .  S
C378        C379   1.398       .  A
C378        C383   1.396       .  A
C378        H384   1.083       .  S
C379        C380   1.399       .  A
C380        C381   1.397       .  A
C380        H385   1.083       .  S
C381        C382   1.416       .  A
C381        H386   1.083       .  S
C382        C383   1.417       .  A
C383        H387   1.080       .  S
C388        C389   1.422       .  A
C388        C393   1.406       .  A
C388        H394   1.080       .  S
C389        C390   1.408       .  A
C390        C391   1.395       .  A
C390        H395   1.083       .  S
C391        C392   1.408       .  A
C391        H396   1.083       .  S
C392        C393   1.402       .  A
C393        H397   1.083       .  S
C398        C399   1.411       .  A
C398        C403   1.390       .  A
C398        H404   1.079       .  S
C399        C400   1.416       .  A
C400        C401   1.401       .  A
C400        H405   1.083       .  S
C401        C402   1.399       .  A
C401        H406   1.083       .  S
C402        C403   1.401       .  A
C403        H407   1.084       .  S
C408        C409   1.410       .  A
C408        C413   1.388       .  A
C408        H414   1.083       .  S
C409        C410   1.418       .  A
C410        C411   1.405       .  A
C410        H415   1.078       .  S
C411        C412   1.403       .  A
C411        H416   1.082       .  S
C412        C413   1.404       .  A
C413        H417   1.084       .  S
C418        C419   1.396       .  A
C418        C423   1.393       .  A
C418        H424   1.083       .  S
C419        C420   1.399       .  A
C420        C421   1.394       .  A
C420        H425   1.083       .  S
C421        C422   1.412       .  A
C421        H426   1.083       .  S
C422        C423   1.415       .  A
C423        H427   1.081       .  S
C428        C429   1.402       .  A
C428        C433   1.391       .  A
C428        H434   1.084       .  S
C429        C430   1.397       .  A
C430        C431   1.397       .  A
C430        H435   1.083       .  S
C431        C432   1.416       .  A
C431        H436   1.083       .  S
C432        C433   1.410       .  A
C433        H437   1.080       .  S
C438        C439   1.413       .  A
C438        C443   1.397       .  A
C438        H444   1.080       .  S
C439        C440   1.416       .  A
C440        C441   1.393       .  A
C440        H445   1.083       .  S
C441        C442   1.397       .  A
C441        H446   1.083       .  S
C442        C443   1.401       .  A
C443        H447   1.083       .  S
C448        C449   1.415       .  A
C448        C453   1.390       .  A
C448        H454   1.081       .  S
C449        C450   1.415       .  A
C450        C451   1.393       .  A
C450        H455   1.081       .  S
C451        C452   1.396       .  A
C451        H456   1.083       .  S
C452        C453   1.395       .  A
C453        H457   1.083       .  S
C458        C459   1.399       .  A
C458        C463   1.398       .  A
C458        H464   1.083       .  S
C459        C460   1.401       .  A
C460        C461   1.390       .  A
C460        H465   1.084       .  S
C461        C462   1.412       .  A
C461        H466   1.081       .  S
C462        C463   1.414       .  A
C463        H467   1.083       .  S
C468        C469   1.413       .  A
C468        C473   1.389       .  A
C468        H474   1.079       .  S
C469        C470   1.416       .  A
C470        C471   1.402       .  A
C470        H475   1.083       .  S
C471        C472   1.400       .  A
C471        H476   1.083       .  S
C472        C473   1.399       .  A
C473        H477   1.084       .  S
C478        C479   1.418       .  A
C478        C483   1.403       .  A
C478        H484   1.079       .  S
C479        C480   1.409       .  A
C480        C481   1.391       .  A
C480        H485   1.083       .  S
C481        C482   1.406       .  A
C481        H486   1.084       .  S
C482        C483   1.402       .  A
C483        H487   1.082       .  S
C488        C489   1.417       .  A
C488        C493   1.408       .  A
C488        H494   1.079       .  S
C489        C490   1.404       .  A
C490        C491   1.390       .  A
C490        H495   1.084       .  S
C491        C492   1.416       .  A
C491        H496   1.078       .  S
C492        C493   1.410       .  A
C493        H497   1.079       .  S
C498        C499   1.352       .  D
C498        H500   1.087       .  S
C499        H501   1.086       .  S
C502        C503   1.349       .  D
C502        H504   1.087       .  S
C503        H505   1.086       .  S
C506        C507   1.342       .  D
C506        H508   1.088       .  S
C507        H509   1.086       .  S
C510        C511   1.345       .  D
C510        H512   1.083       .  S
C511        H513   1.084       .  S
C514        C515   1.349       .  D
C514        H516   1.086       .  S
C515        H517   1.083       .  S
C518        C519   1.345       .  D
C518        H520   1.082       .  S
C519        H521   1.084       .  S
C522        C523   1.351       .  D
C522        H524   1.084       .  S
C523        H525   1.088       .  S
C526        C527   1.345       .  D
C526        H528   1.086       .  S
C527        H529   1.087       .  S
