geometry optimzed in LAMMPS
_audit_creation_date              2020-12-01 
_audit_creation_method            'lammps2cif' 
_symmetry_space_group_name_H-M    'P1' 
_symmetry_Int_Tables_number       1 
_symmetry_cell_setting            triclinic 
loop_ 
_symmetry_equiv_pos_as_xyz 
  x,y,z 
_cell_length_a                    53.93968524 
_cell_length_b                    54.22395951076307 
_cell_length_c                    54.386697514288024 
_cell_angle_alpha                 90.04325943208615 
_cell_angle_beta                  89.33683174357523 
_cell_angle_gamma                 89.68716673231972 
loop_ 
_atom_site_label 
_atom_site_type_symbol 
_atom_site_fract_x 
_atom_site_fract_y 
_atom_site_fract_z 
_atom_site_charge 
O1          O  0.21963532  0.85823050  0.28860740    -0.56800
C2          C  0.28540060  0.86664232  0.26786304     0.75800
O3          O  0.21544281  0.86703898  0.22768530    -0.58000
C4          C  0.19732838  0.86138712  0.28212253     0.75800
C5          C  0.23208070  0.94026905  0.27008663     0.78200
Cd6        Cd  0.23741181  0.88840810  0.25959568     1.37500
O7          O  0.27055765  0.87028489  0.28578533    -0.56800
O8          O  0.22675596  0.93135942  0.24933162    -0.55600
C9          C  0.23228188  0.86802495  0.21135533     0.78100
O10         O  0.24105855  0.92537779  0.28548113    -0.58000
O11         O  0.27880641  0.87476073  0.24717821    -0.56500
O12         O  0.19354993  0.87846696  0.26681188    -0.56400
O13         O  0.25088137  0.88127252  0.21618504    -0.55600
O14         O  0.25123267  0.10941908  0.25825975    -0.56800
C15         C  0.22836675  0.11671390  0.33400212     0.75800
O16         O  0.17300026  0.10743005  0.28375329    -0.58000
C17         C  0.23818310  0.10731094  0.23907394     0.75800
C18         C  0.21792161  0.04420042  0.28773620     0.78200
Cd19       Cd  0.21748779  0.09658388  0.28684514     1.37500
O20         O  0.24510213  0.11605455  0.31734594    -0.56800
O21         O  0.23683264  0.05658284  0.29351039    -0.55600
C22         C  0.17744570  0.13042699  0.28408245     0.78100
O23         O  0.19818001  0.05617051  0.28356345    -0.58000
O24         O  0.20864265  0.10495652  0.32983027    -0.56500
O25         O  0.21657600  0.09896448  0.24226588    -0.56400
O26         O  0.19990105  0.13687732  0.28485728    -0.55600
O27         O  0.27986719  0.73449894  0.90962306    -0.56800
C28         C  0.20056940  0.75190044  0.91036941     0.75800
O29         O  0.24888083  0.77752562  0.96966718    -0.58000
C30         C  0.29841429  0.74802237  0.91433436     0.75800
C31         C  0.25260579  0.80667184  0.89549195     0.78200
Cd32       Cd  0.24942098  0.76421480  0.92651794     1.37500
O33         O  0.21823775  0.73651908  0.90731693    -0.56800
O34         O  0.25674370  0.78497927  0.88785288    -0.55600
C35         C  0.24377923  0.75627195  0.97807706     0.78100
O36         O  0.24754270  0.80922483  0.91826266    -0.58000
O37         O  0.20579921  0.77182477  0.92118192    -0.56500
O38         O  0.29426542  0.76731514  0.92688292    -0.56400
O39         O  0.24227917  0.73892861  0.96260788    -0.55600
O40         O  0.24466998  0.76872657  0.15179194    -0.56800
C41         C  0.24756096  0.69095724  0.15029830     0.75800
O42         O  0.17679645  0.72906658  0.14170322    -0.58000
C43         C  0.22630088  0.78343912  0.15086383     0.75800
C44         C  0.22983423  0.73962883  0.08217684     0.78200
Cd45       Cd  0.22206995  0.73382785  0.13385428     1.37500
O46         O  0.25580265  0.71241732  0.15463809    -0.56800
O47         O  0.24589598  0.74583114  0.09771722    -0.55600
C48         C  0.17981402  0.72332165  0.16415058     0.78100
O49         O  0.21031752  0.72947572  0.09053433    -0.58000
O50         O  0.22987457  0.68953161  0.13525654    -0.56500
O51         O  0.20674531  0.77522873  0.14131926    -0.56400
O52         O  0.20184604  0.72186211  0.17159548    -0.55600
O53         O  0.86659725  0.73020651  0.78776905    -0.56800
C54         C  0.86820551  0.74293817  0.71387011     0.75800
O55         O  0.87501323  0.80671228  0.75592338    -0.58000
C56         C  0.86783621  0.74294314  0.80726943     0.75800
C57         C  0.93672785  0.75754699  0.76660293     0.78200
Cd58       Cd  0.88418458  0.76182365  0.76027841     1.37500
O59         O  0.86727733  0.73020310  0.73343012    -0.56800
O60         O  0.92395202  0.74042226  0.75742050    -0.55600
C61         C  0.85167487  0.80349243  0.75613845     0.78100
O62         O  0.92564173  0.77787943  0.77047902    -0.58000
O63         O  0.87979332  0.76316798  0.71509718    -0.56500
O64         O  0.87730546  0.76410430  0.80505576    -0.56400
O65         O  0.84425516  0.78160392  0.75873091    -0.55600
O66         O  0.11990224  0.75058227  0.77910407    -0.56800
C67         C  0.11283690  0.68645761  0.79793977     0.75800
O68         O  0.10172513  0.72064526  0.85021731    -0.58000
C69         C  0.11318419  0.77265702  0.78313036     0.75800
C70         C  0.03714095  0.73531411  0.79624919     0.78200
Cd71       Cd  0.08924911  0.73268817  0.80798423     1.37500
O72         O  0.11132135  0.70298173  0.78152172    -0.56800
O73         O  0.05297532  0.72591535  0.78170847    -0.55600
C74         C  0.11212118  0.74096748  0.85492727     0.78100
O75         O  0.04500329  0.74145962  0.81721994    -0.58000
O76         O  0.10145372  0.69049294  0.81804096    -0.56500
O77         O  0.09447501  0.77559764  0.79705685    -0.56400
O78         O  0.10854478  0.75816203  0.83969500    -0.55600
O79         O  0.24848832  0.11822203  0.76970354    -0.56800
C80         C  0.18120385  0.11350871  0.80806008     0.75800
O81         O  0.23982283  0.05334625  0.81870193    -0.58000
C82         C  0.27091437  0.11375156  0.77509044     0.75800
C83         C  0.24825600  0.12812994  0.84487555     0.78200
Cd84       Cd  0.23183087  0.09685848  0.80628161     1.37500
O85         O  0.19309149  0.11233648  0.78780721    -0.56800
O86         O  0.24567138  0.13511095  0.82291190    -0.55600
C87         C  0.22884108  0.04451487  0.80017008     0.78100
O88         O  0.24360279  0.10559841  0.84950254    -0.58000
O89         O  0.19243643  0.10598652  0.82693936    -0.56500
O90         O  0.27456929  0.09877861  0.79254880    -0.56400
O91         O  0.21996401  0.05986638  0.78511597    -0.55600
O92         O  0.24746954  0.87600422  0.73684488    -0.56800
C93         C  0.23401273  0.87069706  0.81438633     0.75800
O94         O  0.19820329  0.93084861  0.77190000    -0.58000
C95         C  0.23260438  0.87761873  0.71896447     0.75800
C96         C  0.17743540  0.85480569  0.76729355     0.78200
Cd97       Cd  0.21672977  0.88935712  0.76818061     1.37500
O98         O  0.24782959  0.87030373  0.79529172    -0.56800
O99         O  0.20009253  0.84898113  0.76539155    -0.55600
C100        C  0.21861044  0.94122660  0.77674047     0.78100
O101        O  0.17234376  0.87764164  0.76954285    -0.58000
O102        O  0.21302326  0.88087539  0.81207116    -0.56500
O103        O  0.21187455  0.88780561  0.72345005    -0.56400
O104        O  0.23783754  0.92774901  0.77611437    -0.55600
O105        O  0.10808601  0.28277198  0.27388393    -0.56800
C106        C  0.11183695  0.21194297  0.26897257     0.75800
O107        O  0.04312668  0.25409079  0.23444803    -0.58000
C108        C  0.10972832  0.29955035  0.25770624     0.75800
C109        C  0.11187719  0.24381388  0.19978631     0.78200
Cd110      Cd  0.08749250  0.25296707  0.24639143     1.37500
O111        O  0.11607524  0.23369159  0.27640814    -0.56800
O112        O  0.10519765  0.26528989  0.20619491    -0.55600
C113        C  0.03482480  0.24962760  0.25584258     0.78100
O114        O  0.10398858  0.22642334  0.21313680    -0.58000
O115        O  0.09568578  0.20977925  0.25246013    -0.56500
O116        O  0.09899734  0.29556443  0.23755979    -0.56400
O117        O  0.05067146  0.24841891  0.27268240    -0.55600
O118        O  0.86089201  0.23943520  0.24293322    -0.56800
C119        C  0.86252543  0.23584985  0.32189214     0.75800
O120        O  0.87319324  0.16979416  0.28047171    -0.58000
C121        C  0.86430309  0.22255191  0.22701871     0.75800
C122        C  0.93192445  0.22620969  0.27419614     0.78200
Cd123      Cd  0.88012447  0.21545567  0.27676567     1.37500
O124        O  0.85890091  0.24740155  0.30190276    -0.56800
O125        O  0.91523968  0.24179263  0.26908062    -0.55600
C126        C  0.85019662  0.17270332  0.28530917     0.78100
O127        O  0.92473888  0.20517146  0.28156827    -0.58000
O128        O  0.87677460  0.21725126  0.32101266    -0.56500
O129        O  0.87597177  0.20354993  0.23405511    -0.56400
O130        O  0.84205688  0.19460648  0.28551272    -0.55600
O131        O  0.75586351  0.86065920  0.26443799    -0.56800
C132        C  0.75847242  0.85316724  0.33983415     0.75800
O133        O  0.82719137  0.86336259  0.30035184    -0.58000
C134        C  0.77161220  0.86417372  0.24731750     0.75800
C135        C  0.76995598  0.92619174  0.29786351     0.78200
Cd136      Cd  0.78183120  0.87475584  0.29775915     1.37500
O137        O  0.74852427  0.85293369  0.31880084    -0.56800
O138        O  0.75452558  0.90935015  0.29354739    -0.55600
C139        C  0.82181729  0.84051457  0.30177157     0.78100
O140        O  0.79168542  0.91939705  0.30394399    -0.58000
O141        O  0.77775548  0.86622945  0.34205965    -0.56500
O142        O  0.79228227  0.87304783  0.25358264    -0.56400
O143        O  0.79914105  0.83496819  0.30102338    -0.55600
O144        O  0.75152111  0.10487492  0.30388556    -0.56800
C145        C  0.67610624  0.09036151  0.29343299     0.75800
O146        O  0.72507760  0.08498800  0.23127759    -0.58000
C147        C  0.77052867  0.10353671  0.28994498     0.75800
C148        C  0.73766830  0.02721631  0.28369369     0.78200
Cd149      Cd  0.72552628  0.07867597  0.27704879     1.37500
O150        O  0.69439356  0.09373740  0.30753153    -0.56800
O151        O  0.73785772  0.04247165  0.30133218    -0.55600
C152        C  0.71990100  0.10779840  0.23351254     0.78100
O153        O  0.73046961  0.03550364  0.26315838    -0.58000
O154        O  0.68038519  0.07808302  0.27403717    -0.56500
O155        O  0.76884187  0.08957893  0.27139465    -0.56400
O156        O  0.71768112  0.11592365  0.25518878    -0.55600
O157        O  0.25939609  0.22941403  0.90617971    -0.56800
C158        C  0.24352492  0.30433695  0.91583241     0.75800
O159        O  0.18415437  0.25743217  0.92436112    -0.58000
C160        C  0.24788279  0.20945138  0.91035382     0.75800
C161        C  0.23946340  0.24831648  0.98117300     0.78200
Cd162      Cd  0.22995630  0.25539758  0.92991004     1.37500
O163        O  0.25840689  0.28626218  0.91302990    -0.56800
O164        O  0.25498087  0.25881604  0.96711498    -0.55600
C165        C  0.18571494  0.25762825  0.90098828     0.78100
O166        O  0.21872460  0.24270462  0.97202654    -0.58000
O167        O  0.22375954  0.30015777  0.92791517    -0.56500
O168        O  0.22941542  0.21084568  0.92477460    -0.56400
O169        O  0.20730923  0.25645673  0.89180581    -0.55600
O170        O  0.26400051  0.23759219  0.17200478    -0.56800
C171        C  0.20200126  0.22801897  0.14639054     0.75800
O172        O  0.25760048  0.20452125  0.09100378    -0.58000
C173        C  0.28716526  0.23387081  0.16998261     0.75800
C174        C  0.25736640  0.16690187  0.15582837     0.78200
Cd175      Cd  0.25281258  0.21527748  0.13478451     1.37500
O176        O  0.21894820  0.24408360  0.14780314    -0.56800
O177        O  0.27627832  0.18009202  0.15209023    -0.55600
C178        C  0.25806027  0.22648630  0.08313396     0.78100
O179        O  0.23746797  0.17433533  0.14612352    -0.58000
O180        O  0.20868825  0.20685139  0.13904371    -0.56500
O181        O  0.29470739  0.22442688  0.14991637    -0.56400
O182        O  0.25848639  0.24317814  0.09934397    -0.55600
O183        O  0.85040518  0.24100859  0.80152509    -0.56800
C184        C  0.84952204  0.31353645  0.82191973     0.75800
O185        O  0.85150894  0.25636972  0.87951884    -0.58000
C186        C  0.85256964  0.22029299  0.81211657     0.75800
C187        C  0.91930783  0.26131290  0.83190869     0.78200
Cd188      Cd  0.86608784  0.26518854  0.83615134     1.37500
O189        O  0.85240603  0.29611614  0.80656116    -0.56800
O190        O  0.90566943  0.26773845  0.81426806    -0.55600
C191        C  0.82881964  0.25881230  0.87367916     0.78100
O192        O  0.90868477  0.25905735  0.85276966    -0.58000
O193        O  0.85705562  0.30956135  0.84359460    -0.56500
O194        O  0.86193697  0.22056934  0.83328468    -0.56400
O195        O  0.82451726  0.26463175  0.85165842    -0.55600
O196        O  0.10726039  0.24721239  0.81191162    -0.56800
C197        C  0.09184884  0.22857125  0.74876649     0.75800
O198        O  0.09133637  0.18795066  0.82324273    -0.58000
C199        C  0.10438339  0.24337553  0.83474572     0.75800
C200        C  0.02062891  0.23339665  0.80682843     0.78200
Cd201      Cd  0.07285563  0.22032509  0.79854090     1.37500
O202        O  0.08728662  0.24636117  0.76333542    -0.56800
O203        O  0.03595351  0.24795173  0.79691929    -0.55600
C204        C  0.09320784  0.17180065  0.80653942     0.78100
O205        O  0.02886776  0.21201034  0.81143674    -0.58000
O206        O  0.08622976  0.20735217  0.75663540    -0.56500
O207        O  0.08560556  0.23087186  0.84077574    -0.56400
O208        O  0.08191875  0.17648689  0.78674477    -0.55600
O209        O  0.72093644  0.25398649  0.15480818    -0.56800
C210        C  0.72720702  0.18433699  0.16157027     0.75800
O211        O  0.75062044  0.21006897  0.08918500    -0.58000
C212        C  0.73604809  0.27176855  0.15308446     0.75800
C213        C  0.79828865  0.22138951  0.14742271     0.78200
Cd214      Cd  0.74729599  0.22395203  0.13261819     1.37500
O215        O  0.72344299  0.20665490  0.16749995    -0.56800
O216        O  0.78373475  0.20330854  0.14943071    -0.55600
C217        C  0.72924807  0.21759593  0.08335525     0.78100
O218        O  0.79031943  0.23977816  0.13549824    -0.58000
O219        O  0.73906107  0.18070980  0.14170445    -0.56500
O220        O  0.75567381  0.26782365  0.14069276    -0.56400
O221        O  0.71725437  0.22926488  0.09972328    -0.55600
O222        O  0.71805324  0.24334932  0.92066084    -0.56800
C223        C  0.64500280  0.21784906  0.91109928     0.75800
O224        O  0.70022380  0.19360337  0.89195025    -0.58000
C225        C  0.73859170  0.23208708  0.92303290     0.75800
C226        C  0.69273450  0.20648664  0.98488306     0.78200
Cd227      Cd  0.69239357  0.20750169  0.93242609     1.37500
O228        O  0.66062093  0.23493330  0.91448585    -0.56800
O229        O  0.68625440  0.22557474  0.97314703    -0.55600
C230        C  0.70212437  0.17079770  0.89630314     0.78100
O231        O  0.69605721  0.18697567  0.97235240    -0.58000
O232        O  0.64983801  0.19723904  0.92094951    -0.56500
O233        O  0.73744664  0.21030235  0.93118615    -0.56400
O234        O  0.70001752  0.16404959  0.91862702    -0.55600
O235        O  0.75396158  0.87335340  0.76364107    -0.56800
C236        C  0.68167005  0.88806548  0.78974109     0.75800
O237        O  0.73870684  0.88151821  0.84103792    -0.58000
C238        C  0.77555197  0.87472849  0.77256637     0.75800
C239        C  0.73951098  0.94692889  0.79333521     0.78200
Cd240      Cd  0.73312519  0.89500911  0.79789919     1.37500
O241        O  0.69761932  0.88524704  0.77255266    -0.56800
O242        O  0.73077147  0.93367626  0.77640609    -0.55600
C243        C  0.73246473  0.85935732  0.83656567     0.78100
O244        O  0.74483568  0.93616575  0.81335539    -0.58000
O245        O  0.68939551  0.89686973  0.80981462    -0.56500
O246        O  0.77762676  0.88714683  0.79211995    -0.56400
O247        O  0.72676784  0.85441794  0.81466196    -0.55600
O248        O  0.72616049  0.12190655  0.78886594    -0.56800
C249        C  0.75373300  0.11466494  0.71833503     0.75800
O250        O  0.80474173  0.11399700  0.77970625    -0.58000
C251        C  0.73407938  0.11836639  0.81043931     0.75800
C252        C  0.75911833  0.04976470  0.77420651     0.78200
Cd253      Cd  0.76213279  0.10202407  0.76840534     1.37500
O254        O  0.73612314  0.11452253  0.73400542    -0.56800
O255        O  0.74146402  0.06293345  0.76637104    -0.55600
C256        C  0.80102359  0.13667147  0.77502051     0.78100
O257        O  0.77956138  0.06059966  0.77775846    -0.58000
O258        O  0.77433436  0.10577034  0.72514242    -0.56500
O259        O  0.75419936  0.10651879  0.81218995    -0.56400
O260        O  0.78013005  0.14247566  0.76648593    -0.55600
O261        O  0.11698502  0.71531532  0.26504290    -0.56800
C262        C  0.10979580  0.73111964  0.34280659     0.75800
O263        O  0.10157974  0.78783634  0.29559770    -0.58000
C264        C  0.11381327  0.72929454  0.24654594     0.75800
C265        C  0.04310740  0.73112624  0.28807220     0.78200
Cd266      Cd  0.09454936  0.74259312  0.29402696     1.37500
O267        O  0.11359813  0.71602958  0.32520497    -0.56800
O268        O  0.05895856  0.71475668  0.29354236    -0.55600
C269        C  0.12507670  0.78521578  0.29614132     0.78100
O270        O  0.05082389  0.75320308  0.28688356    -0.58000
O271        O  0.09590991  0.74946388  0.33834466    -0.56500
O272        O  0.10042358  0.74820527  0.25005798    -0.56400
O273        O  0.13339361  0.76339951  0.29525436    -0.55600
O274        O  0.86902530  0.73024429  0.29491943    -0.56800
C275        C  0.87052347  0.65680827  0.26671668     0.75800
O276        O  0.87785900  0.71244081  0.21602541    -0.58000
C277        C  0.87367239  0.75098907  0.28509652     0.75800
C278        C  0.94105889  0.70858854  0.26493064     0.78200
Cd279      Cd  0.88785739  0.70609366  0.26022628     1.37500
O280        O  0.87035656  0.67200929  0.28453478    -0.56800
O281        O  0.92734571  0.69937771  0.28157899    -0.55600
C282        C  0.85455268  0.71288641  0.21999183     0.78100
O283        O  0.93040953  0.71464499  0.24512958    -0.58000
O284        O  0.88180101  0.66343145  0.24728236    -0.56500
O285        O  0.88550491  0.75041732  0.26491217    -0.56400
O286        O  0.84755378  0.71051393  0.24208500    -0.55600
O287        O  0.75847891  0.73904816  0.15478693    -0.56800
C288        C  0.69411037  0.76013323  0.14916768     0.75800
O289        O  0.76825439  0.80146717  0.15012045    -0.58000
C290        C  0.78117683  0.74325403  0.15029246     0.75800
C291        C  0.74374485  0.76665248  0.07639883     0.78200
Cd292      Cd  0.74203901  0.77191678  0.12887332     1.37500
O293        O  0.71099292  0.74385582  0.14716573    -0.56800
O294        O  0.73571723  0.75013831  0.09069084    -0.55600
C295        C  0.75085755  0.81563730  0.15703864     0.78100
O296        O  0.74977501  0.78684995  0.08629009    -0.58000
O297        O  0.69895793  0.78114886  0.14023976    -0.56500
O298        O  0.78568432  0.75953411  0.13425302    -0.56400
O299        O  0.72979370  0.81162355  0.14791768    -0.55600
O300        O  0.73423308  0.75774263  0.90037622    -0.56800
C301        C  0.74524540  0.68353382  0.91238277     0.75800
O302        O  0.80930506  0.73115663  0.91303937    -0.58000
C303        C  0.74723962  0.77711491  0.90149894     0.75800
C304        C  0.75867787  0.73997910  0.97458361     0.78200
Cd305      Cd  0.76384892  0.73150298  0.92275712     1.37500
O306        O  0.73146233  0.70245793  0.91026758    -0.56800
O307        O  0.74089882  0.73272350  0.96153119    -0.55600
C308        C  0.80602330  0.72542973  0.89063875     0.78100
O309        O  0.77962589  0.74191148  0.96395420    -0.58000
O310        O  0.76626706  0.68665661  0.92207396    -0.56500
O311        O  0.76700644  0.77547752  0.91359256    -0.56400
O312        O  0.78392817  0.72190092  0.88416459    -0.55600
O313        O  0.17218274  0.23773838  0.66247754    -0.56800
C314        C  0.24617189  0.25276729  0.64638793     0.75800
O315        O  0.19049527  0.27977172  0.59406754    -0.58000
C316        C  0.15194159  0.24980939  0.66329432     0.75800
C317        C  0.19885184  0.31043406  0.67036358     0.78200
Cd318      Cd  0.19545855  0.26791630  0.63860084     1.37500
O319        O  0.22842156  0.23821667  0.65121179    -0.56800
O320        O  0.19440082  0.28893139  0.67805442    -0.55600
C321        C  0.19489086  0.25800128  0.58633039     0.78100
O322        O  0.20064052  0.31310094  0.64714254    -0.58000
O323        O  0.24015950  0.27372699  0.63812767    -0.56500
O324        O  0.15076029  0.26884581  0.64978143    -0.56400
O325        O  0.19618952  0.24143313  0.60259369    -0.55600
O326        O  0.21901428  0.26065043  0.40315420    -0.56800
C327        C  0.23491857  0.19347970  0.40711301     0.75800
O328        O  0.28001127  0.26287377  0.42378528    -0.58000
C329        C  0.22778199  0.28176357  0.40794877     0.75800
C330        C  0.22411534  0.24088885  0.48483544     0.78200
Cd331      Cd  0.24326791  0.23862748  0.43473281     1.37500
O332        O  0.21953564  0.21123672  0.40697671    -0.56800
O333        O  0.21031188  0.24346474  0.46643788    -0.55600
C334        C  0.29455494  0.24463678  0.42173925     0.78100
O335        O  0.24658894  0.23572109  0.48025499    -0.58000
O336        O  0.25311325  0.19591415  0.42132024    -0.56500
O337        O  0.24245351  0.28281877  0.42591003    -0.56400
O338        O  0.28634411  0.22417379  0.42937319    -0.55600
O339        O  0.26390885  0.61074479  0.79237070    -0.56800
C340        C  0.18725467  0.61331719  0.77840837     0.75800
O341        O  0.23084098  0.60805794  0.71745815    -0.58000
C342        C  0.28285087  0.60987485  0.77829879     0.75800
C343        C  0.23677999  0.54355446  0.76653153     0.78200
Cd344      Cd  0.23444816  0.59614752  0.76151229     1.37500
O345        O  0.20629756  0.61458477  0.79191763    -0.56800
O346        O  0.22894580  0.55749362  0.78362334    -0.55600
C347        C  0.23048227  0.63102577  0.72245447     0.78100
O348        O  0.24186993  0.55379208  0.74610296    -0.58000
O349        O  0.18957242  0.60110599  0.75862871    -0.56500
O350        O  0.27939919  0.60160919  0.75686885    -0.56400
O351        O  0.23268085  0.63690808  0.74478429    -0.55600
O352        O  0.22703509  0.36911051  0.76961741    -0.56800
C353        C  0.25723447  0.37515071  0.84111764     0.75800
O354        O  0.30611876  0.37795512  0.77780762    -0.58000
C355        C  0.23601212  0.37086570  0.74799696     0.75800
C356        C  0.25735386  0.44069846  0.78594199     0.78200
Cd357      Cd  0.26279985  0.38846371  0.79017522     1.37500
O358        O  0.23909907  0.37472513  0.82642390    -0.56800
O359        O  0.23990945  0.42698197  0.79335878    -0.55600
C360        C  0.30291353  0.35523656  0.78265925     0.78100
O361        O  0.27822194  0.43037118  0.78214354    -0.58000
O362        O  0.27724714  0.38427114  0.83288861    -0.56500
O363        O  0.25663662  0.38166161  0.74611360    -0.56400
O364        O  0.28189532  0.34899926  0.79096248    -0.55600
O365        O  0.60406501  0.23183797  0.27892560    -0.56800
C366        C  0.59968897  0.16104311  0.30919625     0.75800
O367        O  0.59951100  0.21852561  0.35880727    -0.58000
C368        C  0.60135035  0.25343885  0.28759758     0.75800
C369        C  0.53288839  0.21798465  0.31620605     0.78200
Cd370      Cd  0.58568143  0.21145357  0.31599850     1.37500
O371        O  0.59756790  0.17580324  0.29117683    -0.56800
O372        O  0.54414296  0.20566872  0.29968238    -0.55600
C373        C  0.62234015  0.21728133  0.35273740     0.78100
O374        O  0.54580951  0.22539876  0.33405622    -0.58000
O375        O  0.59179762  0.16873314  0.32986936    -0.56500
O376        O  0.59016251  0.25511968  0.30806533    -0.56400
O377        O  0.62728841  0.21373423  0.33026999    -0.55600
O378        O  0.34305489  0.24472503  0.27650387    -0.56800
C379        C  0.36316653  0.25206418  0.34316010     0.75800
O380        O  0.42541470  0.26916646  0.29846095    -0.58000
C381        C  0.35063032  0.24635661  0.25441768     0.75800
C382        C  0.36427527  0.31236035  0.28730306     0.78200
Cd383      Cd  0.38072985  0.26266830  0.29456033     1.37500
O384        O  0.36057193  0.23640111  0.32600723    -0.56800
O385        O  0.36374373  0.30198945  0.30806492    -0.55600
C386        C  0.43142306  0.24655654  0.29774226     0.78100
O387        O  0.37610565  0.30123694  0.27033927    -0.58000
O388        O  0.37464904  0.27162178  0.33773393    -0.56500
O389        O  0.37296830  0.25283914  0.25134052    -0.56400
O390        O  0.41415856  0.23151769  0.29349787    -0.55600
O391        O  0.74108224  0.26234200  0.65462032    -0.56800
C392        C  0.73886891  0.18732863  0.64543513     0.75800
O393        O  0.67036556  0.23288547  0.63538062    -0.58000
C394        C  0.72548073  0.27990557  0.65332111     0.75800
C395        C  0.72789043  0.24049166  0.58025903     0.78200
Cd396      Cd  0.71663879  0.23287310  0.63106410     1.37500
O397        O  0.74917856  0.20764480  0.65058164    -0.56800
O398        O  0.74157889  0.24825643  0.59723145    -0.55600
C399        C  0.67111899  0.22442199  0.65716259     0.78100
O400        O  0.70876430  0.22844208  0.58657269    -0.58000
O401        O  0.72066444  0.18827207  0.63098451    -0.56500
O402        O  0.70610896  0.27571675  0.64113228    -0.56400
O403        O  0.69233144  0.21973253  0.66560121    -0.55600
O404        O  0.72681413  0.23949120  0.40443484    -0.56800
C405        C  0.79265665  0.25632413  0.39974360     0.75800
O406        O  0.72336541  0.30317584  0.40841635    -0.58000
C407        C  0.70522041  0.24692031  0.41034709     0.75800
C408        C  0.74962041  0.26398775  0.47907867     0.78200
Cd409      Cd  0.74899267  0.27128291  0.42693104     1.37500
O410        O  0.77415022  0.24221067  0.40227856    -0.56800
O411        O  0.75398470  0.24688078  0.46386182    -0.55600
C412        C  0.74119756  0.31637062  0.40105374     0.78100
O413        O  0.74759128  0.28546833  0.47022472    -0.58000
O414        O  0.79176251  0.27643966  0.41156856    -0.56500
O415        O  0.70401270  0.26502779  0.42497156    -0.56400
O416        O  0.76248582  0.31070889  0.40884141    -0.55600
O417        O  0.23390651  0.73272453  0.65909358    -0.56800
C418        C  0.25492637  0.80558491  0.64740094     0.75800
O419        O  0.31141037  0.74972953  0.64635745    -0.58000
C420        C  0.24376256  0.71160818  0.65616134     0.75800
C421        C  0.26041802  0.74847983  0.58419147     0.78200
Cd422      Cd  0.26651517  0.75507156  0.63597119     1.37500
O423        O  0.23863693  0.78876045  0.64807445    -0.56800
O424        O  0.24335698  0.75667899  0.59815996    -0.55600
C425        C  0.30706403  0.75346320  0.66911809     0.78100
O426        O  0.28134660  0.74457660  0.59395731    -0.58000
O427        O  0.27600813  0.79953553  0.63871375    -0.56500
O428        O  0.26282067  0.71066614  0.64246202    -0.56400
O429        O  0.28482478  0.75775135  0.67532744    -0.55600
O430        O  0.25842473  0.75499565  0.41159825    -0.56800
C431        C  0.18463240  0.72561568  0.41536987     0.75800
O432        O  0.24118274  0.67707095  0.41758566    -0.58000
C433        C  0.27949092  0.74471556  0.41421124     0.75800
C434        C  0.23774656  0.72782038  0.48261392     0.78200
Cd435      Cd  0.23492980  0.72107099  0.43061550     1.37500
O436        O  0.19909314  0.74407134  0.41465276    -0.56800
O437        O  0.22948420  0.74452951  0.46859896    -0.55600
C438        C  0.24106220  0.68301043  0.39489908     0.78100
O439        O  0.24306763  0.70719591  0.47268224    -0.58000
O440        O  0.19250682  0.70652478  0.42627144    -0.56500
O441        O  0.27979869  0.72483947  0.42638270    -0.56400
O442        O  0.23908557  0.70573359  0.39008317    -0.55600
O443        O  0.58636533  0.21968215  0.81139620    -0.56800
C444        C  0.59965355  0.22907531  0.73468267     0.75800
O445        O  0.53465480  0.26224355  0.76232064    -0.58000
C446        C  0.58294186  0.23514714  0.82870596     0.75800
C447        C  0.60717752  0.28975068  0.78167046     0.78200
Cd448      Cd  0.57536045  0.24797995  0.77808032     1.37500
O449        O  0.60038515  0.21681912  0.75455336    -0.56800
O450        O  0.58414376  0.29303793  0.77790258    -0.55600
C451        C  0.52429019  0.24144109  0.76488775     0.78100
O452        O  0.61457005  0.26771022  0.78358092    -0.58000
O453        O  0.58670772  0.24855117  0.73515947    -0.56500
O454        O  0.57310283  0.25555107  0.82279945    -0.56400
O455        O  0.53696905  0.22469908  0.77509901    -0.55600
O456        O  0.34980521  0.24925900  0.76250552    -0.56800
C457        C  0.34471473  0.18266141  0.74385195     0.75800
O458        O  0.34629286  0.25205529  0.70174910    -0.58000
C459        C  0.35827890  0.26997676  0.75569318     0.75800
C460        C  0.42358863  0.22240597  0.73509411     0.78200
Cd461      Cd  0.37084353  0.22607667  0.72920212     1.37500
O462        O  0.34986839  0.19925320  0.75939695    -0.56800
O463        O  0.40831077  0.21367251  0.75045742    -0.55600
C464        C  0.34176010  0.23554479  0.68607108     0.78100
O465        O  0.41455917  0.23041245  0.71519937    -0.58000
O466        O  0.35293690  0.18552351  0.72217506    -0.56500
O467        O  0.37336176  0.26977393  0.73772732    -0.56400
O468        O  0.35359773  0.21542137  0.68824326    -0.55600
O469        O  0.72869900  0.61002872  0.76822960    -0.56800
C470        C  0.71887829  0.60886554  0.84498935     0.75800
O471        O  0.65552324  0.61328686  0.80029445    -0.58000
C472        C  0.71354170  0.60950740  0.75053743     0.75800
C473        C  0.70009489  0.54356841  0.79302719     0.78200
Cd474      Cd  0.69838893  0.59573863  0.79901533     1.37500
O475        O  0.73195949  0.60888820  0.82544210    -0.56800
O476        O  0.71889162  0.55733425  0.79155031    -0.55600
C477        C  0.66352834  0.63529875  0.80204550     0.78100
O478        O  0.67963657  0.55373699  0.79922455    -0.58000
O479        O  0.69758147  0.59919455  0.84370239    -0.56500
O480        O  0.69196049  0.60169425  0.75543404    -0.56400
O481        O  0.68676100  0.63798845  0.80242431    -0.55600
O482        O  0.70326254  0.36171194  0.78804369    -0.56800
C483        C  0.77604423  0.37840483  0.78572696     0.75800
O484        O  0.72418348  0.38246771  0.71770712    -0.58000
C485        C  0.68468245  0.36207366  0.77394873     0.75800
C486        C  0.71831963  0.44085531  0.77040962     0.78200
Cd487      Cd  0.72931533  0.38920180  0.76252022     1.37500
O488        O  0.75532672  0.37466180  0.79636712    -0.56800
O489        O  0.71330618  0.42455353  0.78626941    -0.55600
C490        C  0.73673606  0.36259464  0.71744108     0.78100
O491        O  0.72895027  0.43331467  0.75086430    -0.58000
O492        O  0.77525073  0.38921437  0.76510885    -0.56500
O493        O  0.68645618  0.37587285  0.75532460    -0.56400
O494        O  0.74743948  0.35681832  0.73714510    -0.55600
O495        O  0.61490992  0.74528209  0.79535220    -0.56800
C496        C  0.60527549  0.82068855  0.77704759     0.75800
O497        O  0.60204181  0.76701612  0.72056552    -0.58000
C498        C  0.61039798  0.72510280  0.78439357     0.75800
C499        C  0.54182277  0.76208313  0.77380730     0.78200
Cd500      Cd  0.59309978  0.77102328  0.76525513     1.37500
O501        O  0.60827583  0.80341483  0.79250914    -0.56800
O502        O  0.55703395  0.76418701  0.79120397    -0.55600
C503        C  0.62537473  0.76865550  0.72331569     0.78100
O504        O  0.54996768  0.76644497  0.75223036    -0.58000
O505        O  0.59340266  0.81546841  0.75780193    -0.56500
O506        O  0.59759687  0.72650117  0.76511350    -0.56400
O507        O  0.63291515  0.77157318  0.74502073    -0.55600
O508        O  0.36328764  0.74655927  0.77430678    -0.56800
C509        C  0.37603517  0.73308054  0.84611009     0.75800
O510        O  0.38569919  0.67302989  0.78934883    -0.58000
C511        C  0.36701834  0.73607955  0.75372930     0.75800
C512        C  0.44079175  0.73136427  0.79020571     0.78200
Cd513      Cd  0.38999351  0.71832572  0.79760135     1.37500
O514        O  0.37276291  0.74727698  0.82789360    -0.56800
O515        O  0.42310271  0.74624627  0.78679170    -0.55600
C516        C  0.36379239  0.67241845  0.79821989     0.78100
O517        O  0.43519018  0.70999100  0.79794542    -0.58000
O518        O  0.38871436  0.71370577  0.84228291    -0.56500
O519        O  0.38169146  0.71778744  0.75369012    -0.56400
O520        O  0.35528483  0.69232823  0.80697550    -0.55600
O521        O  0.71972337  0.60448242  0.25755305    -0.56800
C522        C  0.79262060  0.58809782  0.27634910     0.75800
O523        O  0.73559247  0.58800950  0.33308796    -0.58000
C524        C  0.69914888  0.60452357  0.26914136     0.75800
C525        C  0.73156252  0.52765606  0.28084032     0.78200
Cd526      Cd  0.74168015  0.57916927  0.28834504     1.37500
O527        O  0.77569844  0.59160304  0.26064952    -0.56800
O528        O  0.72996782  0.54343646  0.26382378    -0.55600
C529        C  0.74299453  0.61016984  0.33094764     0.78100
O530        O  0.73840037  0.53549616  0.30167603    -0.58000
O531        O  0.78622728  0.57724880  0.29597961    -0.56500
O532        O  0.69816342  0.59158481  0.28850365    -0.56400
O533        O  0.74936323  0.61698759  0.30963538    -0.55600
O534        O  0.72791487  0.36044047  0.29391834    -0.56800
C535        C  0.71446661  0.35206356  0.21850203     0.75800
O536        O  0.65268990  0.36164408  0.26541425    -0.58000
C537        C  0.71415860  0.36422649  0.31265940     0.75800
C538        C  0.70609749  0.42571292  0.26323291     0.78200
Cd539      Cd  0.69756413  0.37364409  0.26364668     1.37500
O540        O  0.72806387  0.35226874  0.23740974    -0.56800
O541        O  0.72323410  0.40972012  0.26361662    -0.55600
C542        C  0.65822164  0.33874161  0.26528765     0.78100
O543        O  0.68411562  0.41775718  0.26067910    -0.58000
O544        O  0.69480173  0.36495583  0.21953238    -0.56500
O545        O  0.69272358  0.37282174  0.30859337    -0.56400
O546        O  0.68101112  0.33323444  0.26503506    -0.55600
O547        O  0.72208677  0.74458113  0.65589769    -0.56800
C548        C  0.79079695  0.71917047  0.64800728     0.75800
O549        O  0.72125485  0.66846593  0.64453358    -0.58000
C550        C  0.69991192  0.73706014  0.65498905     0.75800
C551        C  0.73590589  0.71270149  0.58200646     0.78200
Cd552      Cd  0.74040557  0.70912356  0.63416905     1.37500
O553        O  0.77438089  0.73601177  0.64776496    -0.56800
O554        O  0.73579279  0.73143958  0.59577058    -0.55600
C555        C  0.73259113  0.66688015  0.66478494     0.78100
O556        O  0.73945426  0.69193395  0.59205471    -0.58000
O557        O  0.78460475  0.69842656  0.63936609    -0.56500
O558        O  0.69647876  0.71711632  0.64354647    -0.56400
O559        O  0.74763690  0.68388620  0.66961891    -0.55600
O560        O  0.74112980  0.75792741  0.40775235    -0.56800
C561        C  0.72946358  0.68635229  0.40315822     0.75800
O562        O  0.69621933  0.72735800  0.46964990    -0.58000
C563        C  0.72582669  0.77524060  0.40366458     0.75800
C564        C  0.66292811  0.72779351  0.40259664     0.78200
Cd565      Cd  0.70996031  0.72984091  0.42640896     1.37500
O566        O  0.73895036  0.70740910  0.39943585    -0.56800
O567        O  0.66914447  0.74667182  0.41475168    -0.55600
C568        C  0.71768025  0.72704296  0.47877212     0.78100
O569        O  0.67674702  0.70901725  0.40455728    -0.58000
O570        O  0.71219769  0.68539743  0.41904402    -0.56500
O571        O  0.70391213  0.77204409  0.41138184    -0.56400
O572        O  0.73546426  0.72919452  0.46365216    -0.55600
O573        O  0.25197517  0.62566794  0.28886434    -0.56800
C574        C  0.26926237  0.61890540  0.22351714     0.75800
O575        O  0.31985446  0.60921885  0.25649647    -0.58000
C576        C  0.25781563  0.61995432  0.31066656     0.75800
C577        C  0.26472553  0.54291604  0.26897955     0.78200
Cd578      Cd  0.27875611  0.59426080  0.26908528     1.37500
O579        O  0.25212513  0.61635190  0.23946914    -0.56800
O580        O  0.24925611  0.56031725  0.27118752    -0.55600
C581        C  0.32659259  0.61493897  0.27795018     0.78100
O582        O  0.28714883  0.54900476  0.26557993    -0.58000
O583        O  0.28971550  0.60839402  0.22779606    -0.56500
O584        O  0.27185754  0.60135781  0.31298837    -0.56400
O585        O  0.31333859  0.60672477  0.29540435    -0.55600
O586        O  0.26234708  0.36874338  0.26683953    -0.56800
C587        C  0.18299835  0.37278849  0.27651202     0.75800
O588        O  0.22527470  0.35134678  0.31501663    -0.58000
C589        C  0.27958210  0.37315853  0.28193829     0.75800
C590        C  0.23582658  0.44144698  0.28420889     0.78200
Cd591      Cd  0.23008883  0.38954663  0.29329712     1.37500
O592        O  0.20257703  0.36999560  0.26353755    -0.56800
O593        O  0.23755909  0.42556327  0.26719442    -0.55600
C594        C  0.22595698  0.35968842  0.33669643     0.78100
O595        O  0.22947081  0.43349351  0.30530700    -0.58000
O596        O  0.18475266  0.38629713  0.29540630    -0.56500
O597        O  0.27354531  0.38551453  0.30083009    -0.56400
O598        O  0.22914032  0.38281297  0.33900904    -0.55600
O599        O  0.61363390  0.74560411  0.29769812    -0.56800
C600        C  0.61634821  0.74187827  0.21926066     0.75800
O601        O  0.59926739  0.67589311  0.26066931    -0.58000
C602        C  0.60886284  0.72905304  0.31355344     0.75800
C603        C  0.54346960  0.73315459  0.26723525     0.78200
Cd604      Cd  0.59512661  0.72189606  0.26336287     1.37500
O605        O  0.61819374  0.75329284  0.23954912    -0.56800
O606        O  0.56016758  0.74887809  0.27127023    -0.55600
C607        C  0.62278602  0.67694509  0.25897975     0.78100
O608        O  0.55055679  0.71227541  0.25912307    -0.58000
O609        O  0.60210600  0.72338924  0.21902401    -0.56500
O610        O  0.59726617  0.71035382  0.30603618    -0.56400
O611        O  0.63237963  0.69815437  0.25935252    -0.55600
O612        O  0.37589166  0.72148907  0.27641692    -0.56800
C613        C  0.36539434  0.79788422  0.28233082     0.75800
O614        O  0.38203059  0.75967263  0.34874723    -0.58000
C615        C  0.37804798  0.70488222  0.29266672     0.75800
C616        C  0.44144228  0.75464340  0.29339150     0.78200
Cd617      Cd  0.38915852  0.75561117  0.30330704     1.37500
O618        O  0.36403590  0.77670292  0.27255311    -0.56800
O619        O  0.42513135  0.75249240  0.27704208    -0.55600
C620        C  0.35858598  0.76004568  0.34626279     0.78100
O621        O  0.43372939  0.75972062  0.31498388    -0.58000
O622        O  0.38077118  0.80012944  0.29963878    -0.56500
O623        O  0.38575767  0.71183171  0.31342803    -0.56400
O624        O  0.35048802  0.75793045  0.32469599    -0.55600
C625        C  0.51207706  0.75484387  0.29299011    -0.11300
C626        C  0.51729334  0.73885906  0.27319463     0.05700
C627        C  0.49751159  0.72804419  0.26055268    -0.06600
C628        C  0.47310940  0.73391828  0.26732818    -0.07300
C629        C  0.46780903  0.74991006  0.28711552    -0.01900
C630        C  0.48762908  0.76006382  0.30033232     0.05000
N631        N  0.48339543  0.77574922  0.32108912     0.67500
H632        H  0.52710795  0.76289984  0.30327199     0.16400
H633        H  0.45816061  0.72550953  0.25721282     0.16100
N634        N  0.50180252  0.71143272  0.24053277     0.75200
O635        O  0.48527685  0.76691687  0.34245254    -0.38300
O636        O  0.48380620  0.79883068  0.31822578    -0.38200
O637        O  0.49936418  0.68854934  0.24391972    -0.38900
O638        O  0.50284666  0.71972783  0.21888102    -0.39000
C639        C  0.35552631  0.64651223  0.26162789    -0.11300
C640        C  0.34650033  0.63324204  0.28202029     0.05700
C641        C  0.35239649  0.64163998  0.30583394    -0.06600
C642        C  0.36435837  0.66428064  0.30877650    -0.07300
C643        C  0.37052480  0.67899660  0.28838375    -0.01900
C644        C  0.36720718  0.66931186  0.26457433     0.05000
N645        N  0.37485323  0.68267189  0.24317791     0.67500
H646        H  0.35197004  0.64007154  0.24318057     0.16400
H647        H  0.36735766  0.67103994  0.32725183     0.16100
N648        N  0.34511198  0.62821327  0.32730607     0.75200
O649        O  0.39616872  0.67889085  0.23409832    -0.38300
O650        O  0.35898975  0.69442528  0.23089606    -0.38200
O651        O  0.36028088  0.61341792  0.33695287    -0.38900
O652        O  0.32595454  0.63473275  0.33922375    -0.39000
C653        C  0.23924217  0.51129071  0.28988683    -0.11300
C654        C  0.25678741  0.51702945  0.27155533     0.05700
C655        C  0.26679072  0.49796425  0.25687330    -0.06600
C656        C  0.25920804  0.47354932  0.26083644    -0.07300
C657        C  0.24205909  0.46767951  0.27965953    -0.01900
C658        C  0.23215096  0.48689196  0.29431072     0.05000
N659        N  0.21487991  0.48199678  0.31378086     0.67500
H660        H  0.23152649  0.52580001  0.30141943     0.16400
H661        H  0.26712757  0.45906581  0.24941611     0.16100
N662        N  0.28417971  0.50321337  0.23756377     0.75200
O663        O  0.22270797  0.47864539  0.33530359    -0.38300
O664        O  0.19205441  0.48570925  0.31045537    -0.38200
O665        O  0.30693552  0.49875260  0.24049975    -0.38900
O666        O  0.27706366  0.51390627  0.21826689    -0.39000
C667        C  0.62090891  0.70770527  0.35172681    -0.11300
C668        C  0.61773490  0.73009827  0.33916512     0.05700
C669        C  0.62486211  0.75220439  0.35072720    -0.06600
C670        C  0.63709310  0.75126765  0.37331590    -0.07300
C671        C  0.64276173  0.72856100  0.38443434    -0.01900
C672        C  0.63331284  0.70673796  0.37409370     0.05000
N673        N  0.63708018  0.68328593  0.38547107     0.67500
H674        H  0.61496774  0.69052929  0.34352901     0.16400
H675        H  0.64384807  0.76828811  0.38115850     0.16100
N676        N  0.62030887  0.77565346  0.33965201     0.75200
O677        O  0.62217468  0.67627451  0.40205889    -0.38300
O678        O  0.65145217  0.66774474  0.37541519    -0.38200
O679        O  0.60209007  0.78846842  0.34701861    -0.38900
O680        O  0.63708082  0.78562943  0.32678393    -0.39000
C681        C  0.70711683  0.71807205  0.54752202    -0.11300
C682        C  0.73148265  0.71523543  0.55563948     0.05700
C683        C  0.75128168  0.71675445  0.53878917    -0.06600
C684        C  0.74650330  0.72107463  0.51390171    -0.07300
C685        C  0.72201256  0.72371327  0.50546678    -0.01900
C686        C  0.70219622  0.72212871  0.52264830     0.05000
N687        N  0.67698357  0.72457880  0.51521353     0.67500
H688        H  0.69182723  0.71723932  0.56060901     0.16400
H689        H  0.76203060  0.72212357  0.50113515     0.16100
N690        N  0.77629658  0.71435692  0.54687966     0.75200
O691        O  0.66742108  0.74571120  0.51275403    -0.38300
O692        O  0.66458033  0.70563580  0.51006995    -0.38200
O693        O  0.78486994  0.69331070  0.55202717    -0.38900
O694        O  0.78822782  0.73335949  0.55282524    -0.39000
C695        C  0.65462332  0.61650281  0.27369906    -0.11300
C696        C  0.67765232  0.61994457  0.26171913     0.05700
C697        C  0.68030012  0.64001746  0.24536402    -0.06600
C698        C  0.66109726  0.65727249  0.24323842    -0.07300
C699        C  0.63910937  0.65508220  0.25708083    -0.01900
C700        C  0.63539311  0.63385883  0.27151103     0.05000
N701        N  0.61339958  0.63095800  0.28609130     0.67500
H702        H  0.65200870  0.60106524  0.28607953     0.16400
H703        H  0.66404363  0.67337795  0.23178533     0.16100
N704        N  0.70306018  0.64454409  0.23247867     0.75200
O705        O  0.59695366  0.61605300  0.27929061    -0.38300
O706        O  0.61258136  0.63954281  0.30766050    -0.38200
O707        O  0.70430767  0.64072373  0.20960828    -0.38900
O708        O  0.71956022  0.65733326  0.24258722    -0.39000
C709        C  0.72861587  0.62325139  0.37267826    -0.11300
C710        C  0.74332808  0.62780902  0.35175245     0.05700
C711        C  0.75652826  0.65028049  0.35022052    -0.06600
C712        C  0.75330827  0.66819187  0.36843518    -0.07300
C713        C  0.73675548  0.66462339  0.38813798    -0.01900
C714        C  0.72514121  0.64140934  0.39077470     0.05000
N715        N  0.70890112  0.63627907  0.41105600     0.67500
H716        H  0.71866007  0.60602535  0.37440788     0.16400
H717        H  0.76274887  0.68565343  0.36620333     0.16100
N718        N  0.77246868  0.65585659  0.32979277     0.75200
O719        O  0.68577570  0.63847804  0.40848669    -0.38300
O720        O  0.71720920  0.62519497  0.42963719    -0.38200
O721        O  0.76370487  0.66726840  0.31160970    -0.38900
O722        O  0.79563224  0.65548366  0.33272812    -0.39000
C723        C  0.70498719  0.49598820  0.26136893    -0.11300
C724        C  0.72524195  0.50156753  0.27640009     0.05700
C725        C  0.73904116  0.48215726  0.28674216    -0.06600
C726        C  0.73245315  0.45771711  0.28195585    -0.07300
C727        C  0.71205008  0.45204330  0.26713423    -0.01900
C728        C  0.69814432  0.47146997  0.25689617     0.05000
N729        N  0.67765273  0.46664898  0.24124506     0.67500
H730        H  0.69423925  0.51076396  0.25325043     0.16400
H731        H  0.74341462  0.44304078  0.28997961     0.16100
N732        N  0.76054409  0.48690938  0.30107791     0.75200
O733        O  0.65597815  0.46622932  0.25020363    -0.38300
O734        O  0.68068854  0.46735521  0.21821880    -0.38200
O735        O  0.76020922  0.48232197  0.32382017    -0.38900
O736        O  0.78094285  0.49124768  0.29038364    -0.39000
C737        C  0.63645709  0.75188292  0.68210014    -0.11300
C738        C  0.64327806  0.76571307  0.70272765     0.05700
C739        C  0.66803785  0.77396114  0.70452038    -0.06600
C740        C  0.68579642  0.76603500  0.68735911    -0.07300
C741        C  0.67955525  0.74980925  0.66838697    -0.01900
C742        C  0.65433625  0.74389798  0.66493588     0.05000
N743        N  0.64659048  0.72947936  0.64443517     0.67500
H744        H  0.61743438  0.74598921  0.68000060     0.16400
H745        H  0.70491504  0.77140182  0.68994689     0.16100
N746        N  0.67579546  0.78976304  0.72400893     0.75200
O747        O  0.64241304  0.70678036  0.64727325    -0.38300
O748        O  0.63872755  0.74026015  0.62548309    -0.38200
O749        O  0.68465993  0.78027990  0.74320374    -0.38900
O750        O  0.68038335  0.81206299  0.71926342    -0.39000
C751        C  0.49751962  0.76175678  0.76210897    -0.11300
C752        C  0.51601037  0.75431550  0.77842393     0.05700
C753        C  0.50962292  0.73886495  0.79845164    -0.06600
C754        C  0.48511598  0.73106762  0.80162844    -0.07300
C755        C  0.46659615  0.73892312  0.78557657    -0.01900
C756        C  0.47290424  0.75453697  0.76571834     0.05000
N757        N  0.45465370  0.76272941  0.74867356     0.67500
H758        H  0.50211709  0.77351017  0.74662538     0.16400
H759        H  0.48047257  0.71915687  0.81698128     0.16100
N760        N  0.52784719  0.73040493  0.81539944     0.75200
O761        O  0.44384349  0.78314855  0.75217685    -0.38300
O762        O  0.45320402  0.75236053  0.72796662    -0.38200
O763        O  0.52845859  0.73957234  0.83671521    -0.38900
O764        O  0.53986487  0.71087924  0.81081031    -0.39000
C765        C  0.74805448  0.64015284  0.69792418    -0.11300
C766        C  0.72828816  0.64714412  0.68289461     0.05700
C767        C  0.70440229  0.63809060  0.68812655    -0.06600
C768        C  0.70044272  0.62387927  0.70928687    -0.07300
C769        C  0.71983547  0.61906531  0.72575940    -0.01900
C770        C  0.74409452  0.62641992  0.71929889     0.05000
N771        N  0.76474480  0.62122365  0.73473577     0.67500
H772        H  0.76658526  0.64633026  0.69362381     0.16400
H773        H  0.68166465  0.61838033  0.71380983     0.16100
N774        N  0.68351984  0.64554672  0.67393857     0.75200
O775        O  0.77548328  0.60054049  0.73321302    -0.38300
O776        O  0.77493287  0.63855458  0.74629306    -0.38200
O777        O  0.67217902  0.62979057  0.66129194    -0.38900
O778        O  0.67377003  0.66645131  0.67765228    -0.39000
C779        C  0.62454157  0.65653520  0.78992253    -0.11300
C780        C  0.64718001  0.65726728  0.80227299     0.05700
C781        C  0.65553711  0.68004884  0.81168286    -0.06600
C782        C  0.64229020  0.70168901  0.80698947    -0.07300
C783        C  0.62085541  0.70131280  0.79273069    -0.01900
C784        C  0.61143067  0.67832190  0.78490611     0.05000
N785        N  0.58900030  0.67676223  0.77126900     0.67500
H786        H  0.61777026  0.63922111  0.78273456     0.16400
H787        H  0.64963239  0.71905008  0.81348239     0.16100
N788        N  0.67793149  0.68170528  0.82537473     0.75200
O789        O  0.59000297  0.67678230  0.74807517    -0.38300
O790        O  0.56935183  0.66994458  0.78201717    -0.38200
O791        O  0.69697416  0.69107690  0.81553983    -0.38900
O792        O  0.67728325  0.67833602  0.84831304    -0.39000
C793        C  0.71939990  0.51083206  0.76778620    -0.11300
C794        C  0.70259599  0.51721738  0.78664097     0.05700
C795        C  0.68962875  0.49845415  0.79906631    -0.06600
C796        C  0.69468877  0.47364858  0.79331322    -0.07300
C797        C  0.71216616  0.46722525  0.77485297    -0.01900
C798        C  0.72402886  0.48623675  0.76159987     0.05000
N799        N  0.74151149  0.48098592  0.74234847     0.67500
H800        H  0.72916772  0.52512654  0.75773208     0.16400
H801        H  0.68512793  0.45936502  0.80355009     0.16100
N802        N  0.67227750  0.50424122  0.81830240     0.75200
O803        O  0.73416174  0.47953704  0.72045454    -0.38300
O804        O  0.76440920  0.48261593  0.74649959    -0.38200
O805        O  0.64941191  0.50535365  0.81375998    -0.38900
O806        O  0.67990941  0.51012245  0.83934216    -0.39000
C807        C  0.62191040  0.33068280  0.76739714    -0.11300
C808        C  0.62509381  0.31022027  0.78277652     0.05700
C809        C  0.64671516  0.30853269  0.79714193    -0.06600
C810        C  0.66498042  0.32663012  0.79513417    -0.07300
C811        C  0.66278873  0.34609964  0.77832210    -0.01900
C812        C  0.64065145  0.34833922  0.76469958     0.05000
N813        N  0.63720706  0.36775886  0.74730644     0.67500
H814        H  0.60546133  0.33220073  0.75622815     0.16400
H815        H  0.68166554  0.32454734  0.80585984     0.16100
N816        N  0.65085086  0.28824666  0.81342226     0.75200
O817        O  0.64291040  0.36409496  0.72502510    -0.38300
O818        O  0.62344051  0.38583326  0.75293398    -0.38200
O819        O  0.66105643  0.26889821  0.80516376    -0.38900
O820        O  0.65068605  0.29204903  0.83630892    -0.39000
C821        C  0.48493199  0.21824604  0.76854165    -0.11300
C822        C  0.49880148  0.23645214  0.75641070     0.05700
C823        C  0.48843520  0.24846987  0.73588226    -0.06600
C824        C  0.46441790  0.24255038  0.72834813    -0.07300
C825        C  0.45018745  0.22498274  0.74108571    -0.01900
C826        C  0.46083778  0.21257546  0.76126745     0.05000
N827        N  0.44743992  0.19428001  0.77477350     0.67500
H828        H  0.49267904  0.20857835  0.78412839     0.16400
H829        H  0.45661359  0.25237654  0.71289135     0.16100
N830        N  0.50218168  0.26626991  0.72207982     0.75200
O831        O  0.45042143  0.17180472  0.76942946    -0.38300
O832        O  0.43679544  0.20008787  0.79475339    -0.38200
O833        O  0.51369814  0.25956208  0.70286414    -0.38900
O834        O  0.49817782  0.28893113  0.72574720    -0.39000
C835        C  0.29895409  0.77030847  0.38174317    -0.11300
C836        C  0.30207041  0.75393745  0.40143798     0.05700
C837        C  0.32584016  0.74343792  0.40528632    -0.06600
C838        C  0.34507576  0.74763917  0.38823733    -0.07300
C839        C  0.34088961  0.76167259  0.36707880    -0.01900
C840        C  0.31789255  0.77390562  0.36439772     0.05000
N841        N  0.31288530  0.78879233  0.34330232     0.67500
H842        H  0.28103643  0.77874226  0.37847274     0.16400
H843        H  0.36268361  0.73825326  0.39055648     0.16100
N844        N  0.33035265  0.72713543  0.42539728     0.75200
O845        O  0.30249541  0.77925185  0.32495045    -0.62300
O846        O  0.31368422  0.81196657  0.34514955    -0.38200
O847        O  0.33230720  0.70425435  0.42150334    -0.38900
O848        O  0.33718797  0.73586069  0.44571754    -0.39000
C849        C  0.23691474  0.67363505  0.35064560    -0.11300
C850        C  0.24286944  0.66513950  0.37429586     0.05700
C851        C  0.25111754  0.64060464  0.37704736    -0.06600
C852        C  0.25480175  0.62576692  0.35614819    -0.07300
C853        C  0.25006363  0.63480506  0.33236775    -0.01900
C854        C  0.24031549  0.65884889  0.32987234     0.05000
N855        N  0.23500274  0.66915593  0.30632251     0.67500
H856        H  0.23000742  0.69225919  0.34803176     0.16400
H857        H  0.26206536  0.60725361  0.35854928     0.16100
N858        N  0.25673401  0.63074662  0.40069020     0.75200
O859        O  0.21295386  0.66944494  0.29882282    -0.38300
O860        O  0.25110912  0.68216338  0.29552457    -0.38200
O861        O  0.24045187  0.61868692  0.41230624    -0.38900
O862        O  0.27892817  0.63009038  0.40774809    -0.39000
C863        C  0.36011788  0.73169836  0.70870164    -0.11300
C864        C  0.35438423  0.74392288  0.73093832     0.05700
C865        C  0.33557017  0.76212867  0.73108060    -0.06600
C866        C  0.32170407  0.76618241  0.70993722    -0.07300
C867        C  0.32612391  0.75254023  0.68835677    -0.01900
C868        C  0.34628237  0.73596695  0.68744814     0.05000
N869        N  0.35178415  0.72199213  0.66576892     0.67500
H870        H  0.37482048  0.71801645  0.70797179     0.16400
H871        H  0.30651575  0.77934542  0.71080539     0.16100
N872        N  0.32927896  0.77575765  0.75279798     0.75200
O873        O  0.36658380  0.73058326  0.64985556    -0.38300
O874        O  0.34558380  0.69961705  0.66467439    -0.38200
O875        O  0.33600616  0.79792623  0.75464459    -0.38900
O876        O  0.31300886  0.76749768  0.76742941    -0.39000
C877        C  0.23654752  0.75671978  0.54634983    -0.11300
C878        C  0.25549380  0.74344149  0.55798414     0.05700
C879        C  0.26785200  0.72446232  0.54491010    -0.06600
C880        C  0.26117068  0.71918470  0.52067667    -0.07300
C881        C  0.24239360  0.73262323  0.50894671    -0.01900
C882        C  0.22996934  0.75157732  0.52207578     0.05000
N883        N  0.21002635  0.76518534  0.51142871     0.67500
H884        H  0.22658255  0.77111039  0.55623160     0.16400
H885        H  0.27103863  0.70468368  0.51087096     0.16100
N886        N  0.28643203  0.70961733  0.55626681     0.75200
O887        O  0.18831502  0.75670007  0.51274529    -0.38300
O888        O  0.21315384  0.78750618  0.50568717    -0.38200
O889        O  0.28060973  0.68891401  0.56512641    -0.38900
O890        O  0.30900982  0.71479333  0.55302262    -0.39000
C891        C  0.71384806  0.34640741  0.38025873    -0.11300
C892        C  0.73729730  0.33532595  0.38206694     0.05700
C893        C  0.75442458  0.33792404  0.36245327    -0.06600
C894        C  0.74689450  0.34894716  0.34054162    -0.07300
C895        C  0.72255083  0.35771521  0.33772220    -0.01900
C896        C  0.70639201  0.35776267  0.35842519     0.05000
N897        N  0.68185116  0.36773421  0.35727876     0.67500
H898        H  0.70059022  0.34474567  0.39529069     0.16400
H899        H  0.75984238  0.34925749  0.32516459     0.16100
N900        N  0.77844581  0.32671190  0.36324912     0.75200
O901        O  0.66426755  0.35407750  0.35066328    -0.38300
O902        O  0.67699806  0.38781081  0.36810224    -0.38200
O903        O  0.78254693  0.30696020  0.35157109    -0.38900
O904        O  0.79639796  0.33862454  0.37187232    -0.39000
C905        C  0.71466573  0.34266944  0.68331202    -0.11300
C906        C  0.73669111  0.34534981  0.69642718     0.05700
C907        C  0.75596995  0.32801372  0.69273005    -0.06600
C908        C  0.75236100  0.30763844  0.67747703    -0.07300
C909        C  0.72954435  0.30371897  0.66605412    -0.01900
C910        C  0.71074647  0.32190913  0.66855255     0.05000
N911        N  0.68667662  0.31845787  0.65850011     0.67500
H912        H  0.69946308  0.35552119  0.68630911     0.16400
H913        H  0.76724108  0.29425395  0.67548322     0.16100
N914        N  0.77908556  0.33030243  0.70498729     0.75200
O915        O  0.67009635  0.30838257  0.67153173    -0.38300
O916        O  0.68053954  0.33031845  0.63955338    -0.38200
O917        O  0.78391319  0.31597490  0.72259450    -0.38900
O918        O  0.79653313  0.34167983  0.69440847    -0.39000
C919        C  0.61088257  0.23704596  0.69104152    -0.11300
C920        C  0.61426339  0.22262429  0.71228792     0.05700
C921        C  0.63373461  0.20513690  0.71246835    -0.06600
C922        C  0.65083552  0.20448452  0.69293413    -0.07300
C923        C  0.64903155  0.22098975  0.67309573    -0.01900
C924        C  0.62804254  0.23642087  0.67155668     0.05000
N925        N  0.62518121  0.25343616  0.65173557     0.67500
H926        H  0.59574038  0.25021891  0.69017909     0.16400
H927        H  0.66658829  0.19205613  0.69412214     0.16100
N928        N  0.63770960  0.18930267  0.73306005     0.75200
O929        O  0.61146751  0.24785697  0.63396482    -0.38300
O930        O  0.63174190  0.27554908  0.65450570    -0.38200
O931        O  0.63237511  0.16674177  0.73135825    -0.38900
O932        O  0.65149490  0.19638955  0.75024397    -0.39000
C933        C  0.73856379  0.27064093  0.54798779    -0.11300
C934        C  0.73385993  0.24609895  0.55451819     0.05700
C935        C  0.73528744  0.22755558  0.53652546    -0.06600
C936        C  0.74143890  0.23377870  0.51230332    -0.07300
C937        C  0.74560277  0.25845741  0.50544462    -0.01900
C938        C  0.74392088  0.27705090  0.52359881     0.05000
N939        N  0.74705907  0.30250332  0.51761510     0.67500
H940        H  0.73738144  0.28502771  0.56181026     0.16400
H941        H  0.74239607  0.21918192  0.49870434     0.16100
N942        N  0.73125795  0.20227323  0.54269610     0.75200
O943        O  0.72830230  0.31545581  0.51251601    -0.38300
O944        O  0.76727436  0.31297074  0.52238891    -0.38200
O945        O  0.71090322  0.19230154  0.53747359    -0.38900
O946        O  0.74940585  0.18892487  0.54878961    -0.39000
C947        C  0.33519926  0.33497025  0.26066402    -0.11300
C948        C  0.34866572  0.33423489  0.28262652     0.05700
C949        C  0.34198055  0.35045827  0.30184841    -0.06600
C950        C  0.32065897  0.36495094  0.29989921    -0.07300
C951        C  0.30513900  0.36310304  0.27939303    -0.01900
C952        C  0.31337989  0.34906516  0.25895083     0.05000
N953        N  0.29916990  0.34760767  0.23699430     0.67500
H954        H  0.34015746  0.32268917  0.24563844     0.16400
H955        H  0.31522502  0.37613558  0.31559664     0.16100
N956        N  0.35540312  0.35096785  0.32435007     0.75200
O957        O  0.30332936  0.36271596  0.21982107    -0.38300
O958        O  0.28692569  0.32835956  0.23263011    -0.38200
O959        O  0.37112583  0.36774933  0.32767158    -0.38900
O960        O  0.34722502  0.33911370  0.34265957    -0.39000
C961        C  0.64688619  0.29569490  0.25578033    -0.11300
C962        C  0.63983034  0.31862063  0.26583900     0.05700
C963        C  0.61727852  0.32046377  0.27896622    -0.06600
C964        C  0.60369797  0.29906051  0.28405358    -0.07300
C965        C  0.61203574  0.27573569  0.27594125    -0.01900
C966        C  0.63310251  0.27440331  0.26039071     0.05000
N967        N  0.64213304  0.25137490  0.25100692     0.67500
H968        H  0.66404458  0.29396865  0.24534248     0.16400
H969        H  0.58733757  0.30054487  0.29572449     0.16100
N970        N  0.60926197  0.34334737  0.28944910     0.75200
O971        O  0.63582699  0.24448508  0.22982528    -0.38300
O972        O  0.66010181  0.24080357  0.26136829    -0.38200
O973        O  0.59453553  0.35699955  0.27772334    -0.38900
O974        O  0.61338480  0.34781230  0.31180016    -0.39000
C975        C  0.63857820  0.23623427  0.39081382    -0.11300
C976        C  0.64253774  0.22085467  0.37041278     0.05700
C977        C  0.66658531  0.21133109  0.36575409    -0.06600
C978        C  0.68628916  0.21865831  0.38036925    -0.07300
C979        C  0.68286527  0.23596594  0.39928256    -0.01900
C980        C  0.65849675  0.24411309  0.40509044     0.05000
N981        N  0.65369778  0.26140268  0.42443085     0.67500
H982        H  0.62021548  0.24355888  0.39471806     0.16400
H983        H  0.70468161  0.21180096  0.37579830     0.16100
N984        N  0.67167787  0.19505085  0.34559080     0.75200
O985        O  0.65306789  0.28414426  0.41954011    -0.38300
O986        O  0.64454231  0.25389286  0.44450521    -0.38200
O987        O  0.67968038  0.20389834  0.32558339    -0.38900
O988        O  0.67462888  0.17234545  0.34973623    -0.39000
C989        C  0.49104940  0.20867716  0.30000900    -0.11300
C990        C  0.50629139  0.22423790  0.31380428     0.05700
C991        C  0.49638789  0.24665530  0.32289116    -0.06600
C992        C  0.47216869  0.25361946  0.31700868    -0.07300
C993        C  0.45706758  0.23831709  0.30280181    -0.01900
C994        C  0.46649429  0.21526117  0.29487184     0.05000
N995        N  0.45164123  0.19851908  0.28118136     0.67500
H996        H  0.49828067  0.19131602  0.29303118     0.16400
H997        H  0.46508341  0.27110187  0.32383059     0.16100
N998        N  0.51089335  0.26305689  0.33733983     0.75200
O999        O  0.45336927  0.19817279  0.25802954    -0.38300
O1000       O  0.44086233  0.18105400  0.29219578    -0.38200
O1001       O  0.52230263  0.28051384  0.32696901    -0.38900
O1002       O  0.50794153  0.26335363  0.36038915    -0.39000
C1003       C  0.32171838  0.31549724  0.79414018    -0.11300
C1004       C  0.32196197  0.33613714  0.77858925     0.05700
C1005       C  0.33783858  0.33625147  0.75788159    -0.06600
C1006       C  0.35149068  0.31500514  0.75198833    -0.07300
C1007       C  0.34940234  0.29351132  0.76633912    -0.01900
C1008       C  0.33550394  0.29438578  0.78840703     0.05000
N1009       N  0.33470141  0.27388520  0.80489792     0.67500
H1010       H  0.30988520  0.31531653  0.81034716     0.16400
H1011       H  0.36209377  0.31474070  0.73494572     0.16100
N1012       N  0.33792248  0.35641863  0.74099049     0.75200
O1013       O  0.35199413  0.27095791  0.82006767    -0.38300
O1014       O  0.31471761  0.26221575  0.80789930    -0.38200
O1015       O  0.35671978  0.37009498  0.73943761    -0.38900
O1016       O  0.32183819  0.35729071  0.72435449    -0.39000
C1017       C  0.30852831  0.63174025  0.80883991    -0.11300
C1018       C  0.30716103  0.61983820  0.78599091     0.05700
C1019       C  0.32798690  0.62079598  0.76989136    -0.06600
C1020       C  0.34797170  0.63621832  0.77543145    -0.07300
C1021       C  0.34764723  0.65056891  0.79686634    -0.01900
C1022       C  0.32851056  0.64696377  0.81439365     0.05000
N1023       N  0.32848123  0.65958011  0.83747925     0.67500
H1024       H  0.29327945  0.63057474  0.82192409     0.16400
H1025       H  0.36278740  0.63842184  0.76199655     0.16100
N1026       N  0.32863017  0.60737868  0.74726616     0.75200
O1027       O  0.31522508  0.67863933  0.84030966    -0.38300
O1028       O  0.33688539  0.64872401  0.85615312    -0.38200
O1029       O  0.32503619  0.61858220  0.72728249    -0.38900
O1030       O  0.33766973  0.58586809  0.74684296    -0.39000
C1031       C  0.22198454  0.69332019  0.69202637    -0.11300
C1032       C  0.23503626  0.68964592  0.66986852     0.05700
C1033       C  0.24280253  0.66548550  0.66351679    -0.06600
C1034       C  0.23935281  0.64609297  0.68019402    -0.07300
C1035       C  0.22876160  0.65040165  0.70344500    -0.01900
C1036       C  0.21907426  0.67412140  0.70895468     0.05000
N1037       N  0.20723124  0.67942211  0.73206172     0.67500
H1038       H  0.21565496  0.71163040  0.69718287     0.16400
H1039       H  0.24652296  0.62795385  0.67553685     0.16100
N1040       N  0.25522274  0.66047493  0.64070306     0.75200
O1041       O  0.22009807  0.68726383  0.74962442    -0.38300
O1042       O  0.18403421  0.68250184  0.73286261    -0.38200
O1043       O  0.27851318  0.65813379  0.64023371    -0.38900
O1044       O  0.24282358  0.65326412  0.62255707    -0.39000
C1045       C  0.26090143  0.50509471  0.75860509    -0.11300
C1046       C  0.24107070  0.51694341  0.77081062     0.05700
C1047       C  0.22711071  0.50366565  0.78841564    -0.06600
C1048       C  0.23304326  0.47904071  0.79338423    -0.07300
C1049       C  0.25294122  0.46722011  0.78130873    -0.01900
C1050       C  0.26698336  0.48049109  0.76376775     0.05000
N1051       N  0.28687970  0.46900634  0.75039667     0.67500
H1052       H  0.27199416  0.51508789  0.74523234     0.16400
H1053       H  0.22187137  0.46906820  0.80671133     0.16100
N1054       N  0.20631176  0.51463412  0.80082167     0.75200
O1055       O  0.28230862  0.45507177  0.73243378    -0.38300
O1056       O  0.30888062  0.47129860  0.75765778    -0.38200
O1057       O  0.18506886  0.51304143  0.79149657    -0.38900
O1058       O  0.20831640  0.52145106  0.82289449    -0.39000
C1059       C  0.23683811  0.32533792  0.39643221    -0.11300
C1060       C  0.22293658  0.30379195  0.39245635     0.05700
C1061       C  0.20725241  0.30284380  0.37188757    -0.06600
C1062       C  0.20777556  0.32191826  0.35461031    -0.07300
C1063       C  0.22308609  0.34253730  0.35764575    -0.01900
C1064       C  0.23696744  0.34466546  0.37929431     0.05000
N1065       N  0.25322616  0.36501072  0.38295830     0.67500
H1066       H  0.24889789  0.32663889  0.41216731     0.16400
H1067       H  0.19666986  0.32017664  0.33823745     0.16100
N1068       N  0.19126647  0.28235395  0.36776359     0.75200
O1069       O  0.24690969  0.38207038  0.39756170    -0.38300
O1070       O  0.27544302  0.36351882  0.37555619    -0.38200
O1071       O  0.16933714  0.28299623  0.37608574    -0.38900
O1072       O  0.19730608  0.26620067  0.35205775    -0.39000
C1073       C  0.32778125  0.22474848  0.39696001    -0.11300
C1074       C  0.31825007  0.24637539  0.40789141     0.05700
C1075       C  0.32821128  0.26934291  0.40068109    -0.06600
C1076       C  0.34489978  0.27042887  0.38086576    -0.07300
C1077       C  0.35157785  0.24906404  0.36770854    -0.01900
C1078       C  0.34415379  0.22592844  0.37684848     0.05000
N1079       N  0.35214955  0.20354474  0.36529565     0.67500
H1080       H  0.32084106  0.20686116  0.40252468     0.16400
H1081       H  0.35096239  0.28838305  0.37452791     0.16100
N1082       N  0.32033637  0.29191137  0.41201309     0.75200
O1083       O  0.37134258  0.19272211  0.37292587    -0.38300
O1084       O  0.33764234  0.19226205  0.35120639    -0.38200
O1085       O  0.33418020  0.30197413  0.42759701    -0.38900
O1086       O  0.30342500  0.30454102  0.40215975    -0.39000
C1087       C  0.28982781  0.26592855  0.65164395    -0.11300
C1088       C  0.27255717  0.24660309  0.65118124     0.05700
C1089       C  0.28074078  0.22250634  0.65692857    -0.06600
C1090       C  0.30494854  0.21872059  0.66538151    -0.07300
C1091       C  0.32112314  0.23863940  0.66865843    -0.01900
C1092       C  0.31383411  0.26219257  0.66041295     0.05000
N1093       N  0.33022822  0.28275287  0.66178888     0.67500
H1094       H  0.28431657  0.28446155  0.64654619     0.16400
H1095       H  0.31026053  0.20045137  0.67153463     0.16100
N1096       N  0.26445657  0.20187507  0.65553045     0.75200
O1097       O  0.34371215  0.28794389  0.64341867    -0.38300
O1098       O  0.32707826  0.29860495  0.67855178    -0.38200
O1099       O  0.26588072  0.18763700  0.63720079    -0.38900
O1100       O  0.25282784  0.19499453  0.67456426    -0.39000
C1101       C  0.22439554  0.34578326  0.68358512    -0.11300
C1102       C  0.20404435  0.33044199  0.68809867     0.05700
C1103       C  0.19207703  0.33162484  0.71133011    -0.06600
C1104       C  0.20191471  0.34616828  0.73008422    -0.07300
C1105       C  0.22371232  0.35969278  0.72634440    -0.01900
C1106       C  0.23432468  0.36030504  0.70238560     0.05000
N1107       N  0.25601208  0.37439896  0.69705046     0.67500
H1108       H  0.23376975  0.34521523  0.66585767     0.16400
H1109       H  0.19291102  0.34599755  0.74799699     0.16100
N1110       N  0.16966460  0.31852775  0.71620198     0.75200
O1111       O  0.27684995  0.36374266  0.69615956    -0.38300
O1112       O  0.25375016  0.39574030  0.68809902    -0.38200
O1113       O  0.17078876  0.29756688  0.72620341    -0.38900
O1114       O  0.14963940  0.33061485  0.71754478    -0.39000
C1115       C  0.19108290  0.26752681  0.54122670    -0.11300
C1116       C  0.20005277  0.25214094  0.55996526     0.05700
C1117       C  0.21577093  0.23209456  0.55333872    -0.06600
C1118       C  0.22324681  0.22870055  0.52883004    -0.07300
C1119       C  0.21470359  0.24431312  0.51028765    -0.01900
C1120       C  0.19797263  0.26352751  0.51649822     0.05000
N1121       N  0.18879455  0.27984107  0.49802714     0.67500
H1122       H  0.17901347  0.28293308  0.54581743     0.16400
H1123       H  0.23588646  0.21372393  0.52427606     0.16100
N1124       N  0.22520215  0.21548813  0.57139736     0.75200
O1125       O  0.16733648  0.27673689  0.48960586    -0.38300
O1126       O  0.20308541  0.29534669  0.48806044    -0.38200
O1127       O  0.21480374  0.19494533  0.57469418    -0.38900
O1128       O  0.24608672  0.21942234  0.58080496    -0.39000
C1129       C  0.75742948  0.64685433  0.88830663    -0.11300
C1130       C  0.73866202  0.65972916  0.90109823     0.05700
C1131       C  0.71390413  0.65203977  0.89879502    -0.06600
C1132       C  0.70813139  0.63325599  0.88214617    -0.07300
C1133       C  0.72665152  0.62235041  0.86722177    -0.01900
C1134       C  0.75164469  0.62853938  0.87121456     0.05000
N1135       N  0.77126647  0.61748893  0.85709119     0.67500
H1136       H  0.77659014  0.65248435  0.88993470     0.16400
H1137       H  0.68882032  0.62860722  0.87956570     0.16100
N1138       N  0.69440478  0.66351748  0.91274603     0.75200
O1139       O  0.77884906  0.62789795  0.83768868    -0.38300
O1140       O  0.78419762  0.60059969  0.86654237    -0.38200
O1141       O  0.67979142  0.67838309  0.90239794    -0.38900
O1142       O  0.68890072  0.65520303  0.93375834    -0.39000
C1143       C  0.64186395  0.72813756  0.18370883    -0.11300
C1144       C  0.63216954  0.74783141  0.19770303     0.05700
C1145       C  0.64065298  0.77188602  0.19288953    -0.06600
C1146       C  0.65940791  0.77565373  0.17528535    -0.07300
C1147       C  0.67077031  0.75567351  0.16302714    -0.01900
C1148       C  0.66124777  0.73177772  0.16676209     0.05000
N1149       N  0.67143872  0.71092569  0.15403990     0.67500
H1150       H  0.63555728  0.70949152  0.18711891     0.16400
H1151       H  0.66613590  0.79421259  0.17235778     0.16100
N1152       N  0.63096433  0.79259340  0.20617583     0.75200
O1153       O  0.68643350  0.69683698  0.16491430    -0.38300
O1154       O  0.66167876  0.70385836  0.13429335    -0.38200
O1155       O  0.64280963  0.80098137  0.22419315    -0.38900
O1156       O  0.61399049  0.80548713  0.19679521    -0.39000
C1157       C  0.76790105  0.76670290  0.01048718    -0.11300
C1158       C  0.75479148  0.74675181  0.00062776     0.05700
C1159       C  0.73709898  0.73455871  0.01543466    -0.06600
C1160       C  0.73328988  0.74195385  0.03977075    -0.07300
C1161       C  0.74653829  0.76167944  0.04980441    -0.01900
C1162       C  0.76370415  0.77443741  0.03479485     0.05000
N1163       N  0.77752288  0.79474551  0.04412133     0.67500
H1164       H  0.78122852  0.77654582  0.99917175     0.16400
H1165       H  0.72005165  0.73189173  0.05099708     0.16100
N1166       N  0.72363605  0.71387394  0.00642726     0.75200
O1167       O  0.79759928  0.79096490  0.05522262    -0.38300
O1168       O  0.76919739  0.81643092  0.04206734    -0.38200
O1169       O  0.73094191  0.69235327  0.01153130    -0.38900
O1170       O  0.70206122  0.71704874  0.99824015    -0.39000
C1171       C  0.85095915  0.62294382  0.29080083    -0.11300
C1172       C  0.85612688  0.63364240  0.26786339     0.05700
C1173       C  0.84402407  0.62439501  0.24686220    -0.06600
C1174       C  0.82470081  0.60746066  0.24966741    -0.07300
C1175       C  0.81769856  0.59876529  0.27299039    -0.01900
C1176       C  0.83241524  0.60509955  0.29341718     0.05000
N1177       N  0.82782197  0.59482204  0.31722485     0.67500
H1178       H  0.86061805  0.62922680  0.30698516     0.16400
H1179       H  0.81407233  0.60238006  0.23366921     0.16100
N1180       N  0.84940064  0.63368663  0.22281276     0.75200
O1181       O  0.83879150  0.57518334  0.32330926    -0.38300
O1182       O  0.81676623  0.60747961  0.33348244    -0.38200
O1183       O  0.86230707  0.62084534  0.20809232    -0.38900
O1184       O  0.83739657  0.65193378  0.21476060    -0.39000
C1185       C  0.79394997  0.71703571  0.18510097    -0.11300
C1186       C  0.80104184  0.73125379  0.16472231     0.05700
C1187       C  0.82649104  0.73646196  0.16104223    -0.06600
C1188       C  0.84382283  0.72895727  0.17858497    -0.07300
C1189       C  0.83627827  0.71687124  0.20020275    -0.01900
C1190       C  0.81099884  0.71028269  0.20304626     0.05000
N1191       N  0.80181276  0.69784208  0.22448405     0.67500
H1192       H  0.77459811  0.71262170  0.18823109     0.16400
H1193       H  0.86310110  0.73390769  0.17590211     0.16100
N1194       N  0.83496902  0.75047314  0.14038322     0.75200
O1195       O  0.79742115  0.71024061  0.24370986    -0.38300
O1196       O  0.79131182  0.67725693  0.22199931    -0.38200
O1197       O  0.84011130  0.77297673  0.14313507    -0.38900
O1198       O  0.84203421  0.73942387  0.12109523    -0.39000
C1199       C  0.14866899  0.74811372  0.39759896    -0.11300
C1200       C  0.16080109  0.72566059  0.40206202     0.05700
C1201       C  0.15206898  0.70408288  0.39042174    -0.06600
C1202       C  0.13363756  0.70585307  0.37256654    -0.07300
C1203       C  0.12310624  0.72869250  0.36642959    -0.01900
C1204       C  0.12958534  0.74971565  0.38037469     0.05000
N1205       N  0.11836319  0.77322692  0.37601716     0.67500
H1206       H  0.15475854  0.76474872  0.40672835     0.16400
H1207       H  0.12870383  0.68946778  0.36234523     0.16100
N1208       N  0.16347049  0.68060746  0.39448877     0.75200
O1209       O  0.09909110  0.77932463  0.38795584    -0.38300
O1210       O  0.12995000  0.78934226  0.36381734    -0.38200
O1211       O  0.15244656  0.66483089  0.40761824    -0.38900
O1212       O  0.18164698  0.67398051  0.38120353    -0.39000
C1213       C  0.00453906  0.73881025  0.26477603    -0.11300
C1214       C  0.01713185  0.72471286  0.28231851     0.05700
C1215       C  0.00519585  0.70399783  0.29270307    -0.06600
C1216       C  0.98064329  0.69860470  0.28634881    -0.07300
C1217       C  0.96784276  0.71306317  0.26913075    -0.01900
C1218       C  0.98034640  0.73296632  0.25783369     0.05000
N1219       N  0.96854651  0.74795114  0.23977529     0.67500
H1220       H  0.01367037  0.75433370  0.25607074     0.16400
H1221       H  0.97145509  0.68316298  0.29513187     0.16100
N1222       N  0.01754156  0.68856451  0.31007244     0.75200
O1223       O  0.95783558  0.76769102  0.24625777    -0.38300
O1224       O  0.97305364  0.74408712  0.21727741    -0.38200
O1225       O  0.02260207  0.69670101  0.33116339    -0.38900
O1226       O  0.02424961  0.66705355  0.30399940    -0.39000
C1227       C  0.77176742  0.14108932  0.68582540    -0.11300
C1228       C  0.75132153  0.12753332  0.69453843     0.05700
C1229       C  0.72819426  0.13069481  0.68312434    -0.06600
C1230       C  0.72548938  0.14851551  0.66476935    -0.07300
C1231       C  0.74516800  0.16418761  0.65829569    -0.01900
C1232       C  0.76877195  0.15969807  0.66822767     0.05000
N1233       N  0.78952231  0.17471168  0.66173396     0.67500
H1234       H  0.78970362  0.13892319  0.69436431     0.16400
H1235       H  0.70718255  0.15166506  0.65733860     0.16100
N1236       N  0.70683452  0.11730561  0.69113751     0.75200
O1237       O  0.79514914  0.19267982  0.67529175    -0.38300
O1238       O  0.80500492  0.16697072  0.64592608    -0.38200
O1239       O  0.69177286  0.12728117  0.70608855    -0.38900
O1240       O  0.70011503  0.09865573  0.67909267    -0.39000
C1241       C  0.64748227  0.87380456  0.76338407    -0.11300
C1242       C  0.65607882  0.87884995  0.78707567     0.05700
C1243       C  0.64237871  0.87001040  0.80754481    -0.06600
C1244       C  0.62371229  0.85256468  0.80393727    -0.07300
C1245       C  0.61765629  0.84472003  0.78018623    -0.01900
C1246       C  0.62812218  0.85719070  0.75976298     0.05000
N1247       N  0.62141418  0.85123419  0.73511599     0.67500
H1248       H  0.65716084  0.88116899  0.74745548     0.16400
H1249       H  0.61515043  0.84388197  0.81981587     0.16100
N1250       N  0.64837199  0.87695485  0.83212755     0.75200
O1251       O  0.60914680  0.86663189  0.72275687    -0.38300
O1252       O  0.63193213  0.83340592  0.72424935    -0.38200
O1253       O  0.63470186  0.89227978  0.84339578    -0.38900
O1254       O  0.66406171  0.86456180  0.84398769    -0.39000
C1255       C  0.74902822  0.84213119  0.87531411    -0.11300
C1256       C  0.73289517  0.83976338  0.85545520     0.05700
C1257       C  0.71920520  0.81771565  0.85292291    -0.06600
C1258       C  0.72292476  0.79825690  0.86933126    -0.07300
C1259       C  0.74056999  0.79986369  0.88797928    -0.01900
C1260       C  0.75321467  0.82239718  0.89134528     0.05000
N1261       N  0.77107213  0.82536420  0.91030417     0.67500
H1262       H  0.75956906  0.85891303  0.87763881     0.16400
H1263       H  0.71288658  0.78125170  0.86648885     0.16100
N1264       N  0.70199060  0.81431926  0.83341324     0.75200
O1265       O  0.79377708  0.82223195  0.90529873    -0.38300
O1266       O  0.76487925  0.83639770  0.92988124    -0.38200
O1267       O  0.70933516  0.80408794  0.81377253    -0.38900
O1268       O  0.67906577  0.81495331  0.83825827    -0.39000
C1269       C  0.76375956  0.98502602  0.80108528    -0.11300
C1270       C  0.74393362  0.97345172  0.78931203     0.05700
C1271       C  0.72953971  0.98707113  0.77256779    -0.06600
C1272       C  0.73528763  0.01162632  0.76766844    -0.07300
C1273       C  0.75525188  0.02324180  0.77913404    -0.01900
C1274       C  0.76956092  0.00973117  0.79612827     0.05000
N1275       N  0.78935364  0.02096992  0.80921011     0.67500
H1276       H  0.77499501  0.97478640  0.81398226     0.16400
H1277       H  0.72382747  0.02172133  0.75485095     0.16100
N1278       N  0.70839407  0.97655267  0.76103480     0.75200
O1279       O  0.78486709  0.03126647  0.82960824    -0.38300
O1280       O  0.81149085  0.01603406  0.80318702    -0.38200
O1281       O  0.68717741  0.97977157  0.77055563    -0.38900
O1282       O  0.71023556  0.96872030  0.73923416    -0.39000
C1283       C  0.61434528  0.24498833  0.88992151    -0.11300
C1284       C  0.62362046  0.22119506  0.89442108     0.05700
C1285       C  0.61493426  0.20142201  0.87994214    -0.06600
C1286       C  0.59975936  0.20614089  0.85975414    -0.07300
C1287       C  0.59229340  0.23021807  0.85387609    -0.01900
C1288       C  0.59824476  0.24953092  0.87029185     0.05000
N1289       N  0.58899141  0.27401305  0.86678280     0.67500
H1290       H  0.62025296  0.26030055  0.90120504     0.16400
H1291       H  0.59503091  0.19095427  0.84775441     0.16100
N1292       N  0.62327885  0.17670043  0.88386559     0.75200
O1293       O  0.56810989  0.27987827  0.87577190    -0.38300
O1294       O  0.60339052  0.29073434  0.85932955    -0.38200
O1295       O  0.60955465  0.16190273  0.89554199    -0.38900
O1296       O  0.64134057  0.16839816  0.87139931    -0.39000
C1297       C  0.69785691  0.16105443  0.85246188    -0.11300
C1298       C  0.70653835  0.15377375  0.87558855     0.05700
C1299       C  0.72118307  0.13231090  0.87744053    -0.06600
C1300       C  0.72879702  0.12000887  0.85594293    -0.07300
C1301       C  0.72159630  0.12851069  0.83259680    -0.01900
C1302       C  0.70491041  0.14852651  0.83112251     0.05000
N1303       N  0.69628477  0.15756388  0.80806350     0.67500
H1304       H  0.68622836  0.17731371  0.85074484     0.16400
H1305       H  0.74128913  0.10438339  0.85749813     0.16100
N1306       N  0.73001724  0.12387331  0.90064543     0.75200
O1307       O  0.67557919  0.15047677  0.80022941    -0.38300
O1308       O  0.70641989  0.17622358  0.79851829    -0.38200
O1309       O  0.71971640  0.10569701  0.91092268    -0.38900
O1310       O  0.75069232  0.13124004  0.90830636    -0.39000
C1311       C  0.74490858  0.32838082  0.19296284    -0.11300
C1312       C  0.72024813  0.33564386  0.19738670     0.05700
C1313       C  0.70114819  0.32375299  0.18437134    -0.06600
C1314       C  0.70679257  0.30360718  0.16913898    -0.07300
C1315       C  0.73130756  0.29548068  0.16582844    -0.01900
C1316       C  0.75060547  0.30878083  0.17700978     0.05000
N1317       N  0.77590072  0.30125488  0.17416485     0.67500
H1318       H  0.75979695  0.33727412  0.20274872     0.16400
H1319       H  0.69180139  0.29376938  0.16045317     0.16100
N1320       N  0.67571320  0.33049410  0.18795678     0.75200
O1321       O  0.78921068  0.31100008  0.15764223    -0.38300
O1322       O  0.78596252  0.28850116  0.19072027    -0.38200
O1323       O  0.66586462  0.34587272  0.17361586    -0.38900
O1324       O  0.66209481  0.31764471  0.20186941    -0.39000
C1325       C  0.70105783  0.23014285  0.04992156    -0.11300
C1326       C  0.71859884  0.21329310  0.05883572     0.05700
C1327       C  0.72509489  0.19258762  0.04436722    -0.06600
C1328       C  0.71495219  0.18979620  0.02095991    -0.07300
C1329       C  0.69857114  0.20750115  0.01139395    -0.01900
C1330       C  0.69117617  0.22755825  0.02641022     0.05000
N1331       N  0.67397125  0.24572409  0.01800572     0.67500
H1332       H  0.69546915  0.24588800  0.06099309     0.16400
H1333       H  0.72084813  0.17421134  0.00981999     0.16100
N1334       N  0.74172565  0.17409020  0.05320183     0.75200
O1335       O  0.65127428  0.24354243  0.02338957    -0.38300
O1336       O  0.68193388  0.26616638  0.01025794    -0.38200
O1337       O  0.73307079  0.15489169  0.06310972    -0.38900
O1338       O  0.76420041  0.17448188  0.04652359    -0.39000
C1339       C  0.10138749  0.25518168  0.71227253    -0.11300
C1340       C  0.10393082  0.23238195  0.72428219     0.05700
C1341       C  0.11905452  0.21405087  0.71309084    -0.06600
C1342       C  0.13300359  0.21956520  0.69195957    -0.07300
C1343       C  0.13196481  0.24292656  0.68104831    -0.01900
C1344       C  0.11469813  0.26032593  0.69049969     0.05000
N1345       N  0.11092845  0.28353448  0.67869378     0.67500
H1346       H  0.08921190  0.26922549  0.71996546     0.16400
H1347       H  0.14569432  0.20570936  0.68474205     0.16100
N1348       N  0.12160827  0.19001804  0.72343517     0.75200
O1349       O  0.09353764  0.28592145  0.66355277    -0.38300
O1350       O  0.12162072  0.30247332  0.68668379    -0.38200
O1351       O  0.11467273  0.17170163  0.71100908    -0.38900
O1352       O  0.13651711  0.18672496  0.74085874    -0.39000
C1353       C  0.83732558  0.34448621  0.79056978    -0.11300
C1354       C  0.83593056  0.33627501  0.81497723     0.05700
C1355       C  0.81783724  0.34678541  0.83081118    -0.06600
C1356       C  0.79973128  0.36262202  0.82130800    -0.07300
C1357       C  0.79947763  0.36872241  0.79626388    -0.01900
C1358       C  0.81963129  0.36095573  0.78120696     0.05000
N1359       N  0.82123027  0.36761831  0.75583815     0.67500
H1360       H  0.85141042  0.33696692  0.77827813     0.16400
H1361       H  0.78465590  0.36860662  0.83327511     0.16100
N1362       N  0.81504901  0.33862478  0.85559887     0.75200
O1363       O  0.82948766  0.38857078  0.75002883    -0.38300
O1364       O  0.82036279  0.35096913  0.73968420    -0.38200
O1365       O  0.82294781  0.35194853  0.87280648    -0.38900
O1366       O  0.79917605  0.32232814  0.86037862    -0.39000
C1367       C  0.83251124  0.19850964  0.77754179    -0.11300
C1368       C  0.84355572  0.19723706  0.80075555     0.05700
C1369       C  0.84367562  0.17441005  0.81340467    -0.06600
C1370       C  0.83170296  0.15401078  0.80334221    -0.07300
C1371       C  0.81896881  0.15598838  0.78116422    -0.01900
C1372       C  0.82009556  0.17824480  0.76779449     0.05000
N1373       N  0.80815883  0.18078431  0.74459510     0.67500
H1374       H  0.83247382  0.21565052  0.76731535     0.16400
H1375       H  0.83069285  0.13711767  0.81394287     0.16100
N1376       N  0.85395027  0.17203002  0.83738158     0.75200
O1377       O  0.78774185  0.19217346  0.74340508    -0.38300
O1378       O  0.82034635  0.17652956  0.72509799    -0.38200
O1379       O  0.83969003  0.17240819  0.85593355    -0.38900
O1380       O  0.87592287  0.16434439  0.83963572    -0.39000
C1381       C  0.78584973  0.26843901  0.88661994    -0.11300
C1382       C  0.80767460  0.25490092  0.89082990     0.05700
C1383       C  0.80730872  0.23607981  0.90859863    -0.06600
C1384       C  0.78483719  0.22996762  0.92039743    -0.07300
C1385       C  0.76266307  0.24270560  0.91503257    -0.01900
C1386       C  0.76372292  0.26300525  0.89898730     0.05000
N1387       N  0.74219024  0.27737266  0.89346612     0.67500
H1388       H  0.78549361  0.28219134  0.87293561     0.16400
H1389       H  0.78452144  0.21436462  0.93271186     0.16100
N1390       N  0.82873521  0.22116463  0.91286992     0.75200
O1391       O  0.73778867  0.29681530  0.90554718    -0.38300
O1392       O  0.73071868  0.27349523  0.87376169    -0.38200
O1393       O  0.84150735  0.22480979  0.93180026    -0.38900
O1394       O  0.83202022  0.20167452  0.90055157    -0.39000
C1395       C  0.95880698  0.26817836  0.80882290    -0.11300
C1396       C  0.94593262  0.25557906  0.82749315     0.05700
C1397       C  0.95785805  0.23582589  0.83949541    -0.06600
C1398       C  0.98196337  0.22869446  0.83229916    -0.07300
C1399       C  0.99483878  0.24119439  0.81345214    -0.01900
C1400       C  0.98308379  0.26147227  0.80200418     0.05000
N1401       N  0.99522286  0.27511326  0.78294421     0.67500
H1402       H  0.94987462  0.28328599  0.79927361     0.16400
H1403       H  0.99065280  0.21327226  0.84155540     0.16100
N1404       N  0.94524872  0.22198265  0.85811596     0.75200
O1405       O  0.99040529  0.27052583  0.76076483    -0.38300
O1406       O  0.00656470  0.29466049  0.78826996    -0.38200
O1407       O  0.92948051  0.20599413  0.85219246    -0.38900
O1408       O  0.94824617  0.22725113  0.88048139    -0.39000
C1409       C  0.29339208  0.24162233  0.21442658    -0.11300
C1410       C  0.30397650  0.23840493  0.19091480     0.05700
C1411       C  0.33007151  0.23691582  0.18865467    -0.06600
C1412       C  0.34483022  0.23893820  0.20961020    -0.07300
C1413       C  0.33419314  0.24217560  0.23311517    -0.01900
C1414       C  0.30809535  0.24341197  0.23536415     0.05000
N1415       N  0.29610454  0.24724922  0.25862642     0.67500
H1416       H  0.27342354  0.24240515  0.21675059     0.16400
H1417       H  0.36480801  0.23810875  0.20739575     0.16100
N1418       N  0.34198124  0.23362337  0.16527027     0.75200
O1419       O  0.29192647  0.26897134  0.26597890    -0.38300
O1420       O  0.28519115  0.22949544  0.26902573    -0.38200
O1421       O  0.34772196  0.25228582  0.15263107    -0.38900
O1422       O  0.35102553  0.21283732  0.15962874    -0.39000
C1423       C  0.27201177  0.33343696  0.89457196    -0.11300
C1424       C  0.24803645  0.32821872  0.90330261     0.05700
C1425       C  0.22817525  0.34341777  0.89563954    -0.06600
C1426       C  0.23195488  0.36046362  0.87663014    -0.07300
C1427       C  0.25543773  0.36344795  0.86572177    -0.01900
C1428       C  0.27595175  0.35120577  0.87626638     0.05000
N1429       N  0.30057668  0.35464043  0.86698735     0.67500
H1430       H  0.28762508  0.32252176  0.90076964     0.16400
H1431       H  0.21611381  0.37029993  0.86935105     0.16100
N1432       N  0.20364100  0.34036417  0.90532616     0.75200
O1433       O  0.31482090  0.36929413  0.87792299    -0.38300
O1434       O  0.30966644  0.33918644  0.85201911    -0.38200
O1435       O  0.19584926  0.35471053  0.92201099    -0.38900
O1436       O  0.18840593  0.32706085  0.89402354    -0.39000
C1437       C  0.14083693  0.24977661  0.89410716    -0.11300
C1438       C  0.16365851  0.25820583  0.88493960     0.05700
C1439       C  0.16547336  0.26508776  0.85989380    -0.06600
C1440       C  0.14532647  0.26162109  0.84431295    -0.07300
C1441       C  0.12308590  0.25130826  0.85299911    -0.01900
C1442       C  0.12065906  0.24621754  0.87846878     0.05000
N1443       N  0.09824377  0.23652880  0.88872437     0.67500
H1444       H  0.13895200  0.24470867  0.91330448     0.16400
H1445       H  0.14757136  0.26612551  0.82501127     0.16100
N1446       N  0.18775876  0.27527120  0.84977587     0.75200
O1447       O  0.09597328  0.21350605  0.89116000    -0.38300
O1448       O  0.08366158  0.25075133  0.90031683    -0.38200
O1449       O  0.20147179  0.26212321  0.83606375    -0.38900
O1450       O  0.19070709  0.29833238  0.84997173    -0.39000
C1451       C  0.25397234  0.26120250  0.02235199    -0.11300
C1452       C  0.24552921  0.24250616  0.00683725     0.05700
C1453       C  0.24358302  0.21827042  0.01587109    -0.06600
C1454       C  0.24901186  0.21328439  0.04045786    -0.07300
C1455       C  0.25628448  0.23216506  0.05651491    -0.01900
C1456       C  0.25917388  0.25632583  0.04708187     0.05000
N1457       N  0.26718151  0.27616821  0.06229495     0.67500
H1458       H  0.25601170  0.27980893  0.01537853     0.16400
H1459       H  0.24688652  0.19457610  0.04710862     0.16100
N1460       N  0.23702206  0.19835129  0.00004712     0.75200
O1461       O  0.28995025  0.28127082  0.06313598    -0.38300
O1462       O  0.25144770  0.29141664  0.07063237    -0.38200
O1463       O  0.25392622  0.18613265  0.98930227    -0.38900
O1464       O  0.21525486  0.18996671  0.00078336    -0.39000
C1465       C  0.61899042  0.12918048  0.28248075    -0.11300
C1466       C  0.61324370  0.13728091  0.30635074     0.05700
C1467       C  0.62492981  0.12552516  0.32641422    -0.06600
C1468       C  0.64437555  0.10867806  0.32203671    -0.07300
C1469       C  0.65177678  0.10253626  0.29796105    -0.01900
C1470       C  0.63791862  0.11197638  0.27810768     0.05000
N1471       N  0.64485974  0.10690934  0.25316999     0.67500
H1472       H  0.61005720  0.13765371  0.26683798     0.16400
H1473       H  0.65449716  0.10130206  0.33750062     0.16100
N1474       N  0.61839639  0.13151542  0.35126867     0.75200
O1475       O  0.63440666  0.08958953  0.24186056    -0.38300
O1476       O  0.65697121  0.12276806  0.24113963    -0.38200
O1477       O  0.60319646  0.11807933  0.36280036    -0.38900
O1478       O  0.63100993  0.14704552  0.36294709    -0.39000
C1479       C  0.72905392  0.13970600  0.17199598    -0.11300
C1480       C  0.72003416  0.16347888  0.17767428     0.05700
C1481       C  0.70709351  0.16713813  0.20006410    -0.06600
C1482       C  0.70606228  0.14811282  0.21730189    -0.07300
C1483       C  0.71715016  0.12502629  0.21259480    -0.01900
C1484       C  0.72750842  0.12045573  0.18911549     0.05000
N1485       N  0.73801969  0.09700651  0.18288290     0.67500
H1486       H  0.73853138  0.13626204  0.15464777     0.16400
H1487       H  0.69730557  0.15186520  0.23495143     0.16100
N1488       N  0.69558770  0.19022176  0.20603817     0.75200
O1489       O  0.72448324  0.08074786  0.17338620    -0.38300
O1490       O  0.76127858  0.09444941  0.18201667    -0.38200
O1491       O  0.67287652  0.19334615  0.20159628    -0.38900
O1492       O  0.70635364  0.20497738  0.22028543    -0.39000
C1493       C  0.72457593  0.82852027  0.35854760    -0.11300
C1494       C  0.74899612  0.83715625  0.35986444     0.05700
C1495       C  0.76498913  0.82686456  0.37761367    -0.06600
C1496       C  0.75693652  0.80707386  0.39217316    -0.07300
C1497       C  0.73292584  0.79766408  0.38989718    -0.01900
C1498       C  0.71641137  0.80905458  0.37338484     0.05000
N1499       N  0.69208405  0.79954090  0.36965436     0.67500
H1500       H  0.71208125  0.83602230  0.34496102     0.16400
H1501       H  0.76970958  0.79869322  0.40497894     0.16100
N1502       N  0.78998047  0.83506893  0.37995963     0.75200
O1503       O  0.67349651  0.81135682  0.37774962    -0.38300
O1504       O  0.68901603  0.78237716  0.35432352    -0.38200
O1505       O  0.79476175  0.85230024  0.39473852    -0.38900
O1506       O  0.80748614  0.82213118  0.37121752    -0.39000
C1507       C  0.74144670  0.85199863  0.21557548    -0.11300
C1508       C  0.76608683  0.85723183  0.22162284     0.05700
C1509       C  0.78492081  0.85309835  0.20379892    -0.06600
C1510       C  0.77912799  0.84156960  0.18156706    -0.07300
C1511       C  0.75482030  0.83405321  0.17663560    -0.01900
C1512       C  0.73565899  0.84039852  0.19343513     0.05000
N1513       N  0.71076857  0.83233102  0.18997049     0.67500
H1514       H  0.72665514  0.85535572  0.22883427     0.16400
H1515       H  0.79404920  0.83698549  0.16882073     0.16100
N1516       N  0.81030159  0.85834708  0.20875462     0.75200
O1517       O  0.70443016  0.81136024  0.19778815    -0.38300
O1518       O  0.69425560  0.84785093  0.18439781    -0.38200
O1519       O  0.82432293  0.84132824  0.21629739    -0.38900
O1520       O  0.81968481  0.87813995  0.20090384    -0.39000
C1521       C  0.83272746  0.79886131  0.31612516    -0.11300
C1522       C  0.84011830  0.82027046  0.30353785     0.05700
C1523       C  0.86189293  0.81957018  0.28909896    -0.06600
C1524       C  0.87388598  0.79691012  0.28492502    -0.07300
C1525       C  0.86472329  0.77488043  0.29527717    -0.01900
C1526       C  0.84487396  0.77632721  0.31233825     0.05000
N1527       N  0.83528777  0.75487476  0.32427319     0.67500
H1528       H  0.81619717  0.79918976  0.32763887     0.16400
H1529       H  0.88954305  0.79637408  0.27226966     0.16100
N1530       N  0.87061241  0.84104506  0.27659222     0.75200
O1531       O  0.84222326  0.74982215  0.34577510    -0.38300
O1532       O  0.81615709  0.74467403  0.31594442    -0.38200
O1533       O  0.88769571  0.85362961  0.28596409    -0.38900
O1534       O  0.86493205  0.84451946  0.25442200    -0.39000
C1535       C  0.74597547  0.95791327  0.27568416    -0.11300
C1536       C  0.76247781  0.95224361  0.29466972     0.05700
C1537       C  0.77108601  0.97135014  0.30978813    -0.06600
C1538       C  0.76258712  0.99558979  0.30609382    -0.07300
C1539       C  0.74603730  0.00129806  0.28701086    -0.01900
C1540       C  0.73813517  0.98214132  0.27141158     0.05000
N1541       N  0.72213836  0.98684848  0.25115412     0.67500
H1542       H  0.73949776  0.94343758  0.26362796     0.16400
H1543       H  0.76912743  0.01005010  0.31811358     0.16100
N1544       N  0.78790617  0.96633070  0.32928839     0.75200
O1545       O  0.73144183  0.99311532  0.23071213    -0.38300
O1546       O  0.69995527  0.97961352  0.25211805    -0.38200
O1547       O  0.81060727  0.97127969  0.32662569    -0.38900
O1548       O  0.78057000  0.95485585  0.34817087    -0.39000
C1549       C  0.83602289  0.22189437  0.35604940    -0.11300
C1550       C  0.84838045  0.24148130  0.34451699     0.05700
C1551       C  0.84427001  0.26567787  0.35292125    -0.06600
C1552       C  0.82708954  0.27001259  0.37204959    -0.07300
C1553       C  0.81344058  0.25050589  0.38258191    -0.01900
C1554       C  0.81843407  0.22616508  0.37464471     0.05000
N1555       N  0.80531621  0.20558938  0.38464915     0.67500
H1556       H  0.83890875  0.20317302  0.34954250     0.16400
H1557       H  0.82372895  0.28882184  0.37799640     0.16100
N1558       N  0.85743328  0.28588442  0.34222675     0.75200
O1559       O  0.78637208  0.19772874  0.37379059    -0.38300
O1560       O  0.81571707  0.19210559  0.40041102    -0.38200
O1561       O  0.84634420  0.30094781  0.32845616    -0.38900
O1562       O  0.88048216  0.28786338  0.34537302    -0.39000
C1563       C  0.84811504  0.20104491  0.19051241    -0.11300
C1564       C  0.85334987  0.22351055  0.20217371     0.05700
C1565       C  0.84540593  0.24566817  0.19107549    -0.06600
C1566       C  0.82969879  0.24477406  0.17070113    -0.07300
C1567       C  0.82172861  0.22205786  0.16125182    -0.01900
C1568       C  0.83256428  0.20016335  0.17017057     0.05000
N1569       N  0.82703721  0.17676595  0.15948791     0.67500
H1570       H  0.85480204  0.18381411  0.19811497     0.16400
H1571       H  0.82214021  0.26186727  0.16361861     0.16100
N1572       N  0.85271500  0.26912342  0.20044041     0.75200
O1573       O  0.83854231  0.16996714  0.14029943    -0.38300
O1574       O  0.81449821  0.16125019  0.17155303    -0.38200
O1575       O  0.87052361  0.28031279  0.19025119    -0.38900
O1576       O  0.83838031  0.28076470  0.21486652    -0.39000
C1577       C  0.81240287  0.15694026  0.30595951    -0.11300
C1578       C  0.83287714  0.15221563  0.29040891     0.05700
C1579       C  0.83448897  0.12935010  0.27820207    -0.06600
C1580       C  0.81465006  0.11279800  0.27984715    -0.07300
C1581       C  0.79314546  0.11850007  0.29369960    -0.01900
C1582       C  0.79273470  0.14031312  0.30788697     0.05000
N1583       N  0.77177792  0.14685574  0.32288019     0.67500
H1584       H  0.81113170  0.17422444  0.31594630     0.16400
H1585       H  0.81554506  0.09599106  0.26907420     0.16100
N1586       N  0.85495848  0.12359216  0.26228626     0.75200
O1587       O  0.77159625  0.14117394  0.34537494    -0.38300
O1588       O  0.75625801  0.16240152  0.31507775    -0.38200
O1589       O  0.87145805  0.10875752  0.26945705    -0.38900
O1590       O  0.85386650  0.12912373  0.23979115    -0.39000
C1591       C  0.12664463  0.33214323  0.28502154    -0.11300
C1592       C  0.12481615  0.32188399  0.26147542     0.05700
C1593       C  0.13949235  0.33161325  0.24215455    -0.06600
C1594       C  0.15693106  0.34992210  0.24704004    -0.07300
C1595       C  0.16005725  0.35901524  0.27092250    -0.01900
C1596       C  0.14377999  0.35085400  0.28983003     0.05000
N1597       N  0.14560372  0.35993831  0.31441145     0.67500
H1598       H  0.11528290  0.32505429  0.29995611     0.16400
H1599       H  0.16925169  0.35583652  0.23233433     0.16100
N1600       N  0.13927191  0.32091136  0.21815627     0.75200
O1601       O  0.13284603  0.37846569  0.32085264    -0.38300
O1602       O  0.15543432  0.34663088  0.33067036    -0.38200
O1603       O  0.13029016  0.33291208  0.20046737    -0.38900
O1604       O  0.15228994  0.30196593  0.21384146    -0.39000
C1605       C  0.14386799  0.25997719  0.17087306    -0.11300
C1606       C  0.13046009  0.23965273  0.17984722     0.05700
C1607       C  0.13855546  0.21570053  0.17327536    -0.06600
C1608       C  0.16113448  0.21250268  0.16072660    -0.07300
C1609       C  0.17604462  0.23277499  0.15446778    -0.01900
C1610       C  0.16655216  0.25676731  0.15841213     0.05000
N1611       N  0.17986067  0.27805277  0.15035268     0.67500
H1612       H  0.13749388  0.27855165  0.17475458     0.16400
H1613       H  0.16765654  0.19388140  0.15720505     0.16100
N1614       N  0.12472223  0.19433068  0.18014766     0.75200
O1615       O  0.17805756  0.28502482  0.12831306    -0.38300
O1616       O  0.18923290  0.29233699  0.16599417    -0.38200
O1617       O  0.10891123  0.18583211  0.16552048    -0.38900
O1618       O  0.13176089  0.18131479  0.19801223    -0.39000
C1619       C  0.96466400  0.24810027  0.25092054    -0.11300
C1620       C  0.95829991  0.23242571  0.27050882     0.05700
C1621       C  0.97713929  0.22319017  0.28572491    -0.06600
C1622       C  0.00187235  0.22958205  0.28098243    -0.07300
C1623       C  0.00829941  0.24485417  0.26101660    -0.01900
C1624       C  0.98936499  0.25420539  0.24596133     0.05000
N1625       N  0.99478282  0.27037957  0.22591659     0.67500
H1626       H  0.95036465  0.25543238  0.23909891     0.16400
H1627       H  0.01616225  0.22221202  0.29278439     0.16100
N1628       N  0.97141888  0.20809881  0.30653578     0.75200
O1629       O  0.99454887  0.26216257  0.20420952    -0.38300
O1630       O  0.99472798  0.29337524  0.22947930    -0.38200
O1631       O  0.97481212  0.18508955  0.30526864    -0.38900
O1632       O  0.96769980  0.21806899  0.32723318    -0.39000
C1633       C  0.26300934  0.86112794  0.68815190    -0.11300
C1634       C  0.23823875  0.86576777  0.69493161     0.05700
C1635       C  0.21922859  0.85500255  0.68085612    -0.06600
C1636       C  0.22521989  0.83707096  0.66320053    -0.07300
C1637       C  0.24992723  0.83009853  0.65865849    -0.01900
C1638       C  0.26898074  0.84393600  0.66968470     0.05000
N1639       N  0.29449454  0.83947924  0.66378463     0.67500
H1640       H  0.27785206  0.86987496  0.69813064     0.16400
H1641       H  0.21031655  0.82721695  0.65438740     0.16100
N1642       N  0.19363797  0.85987385  0.68608170     0.75200
O1643       O  0.30470331  0.85172227  0.64677795    -0.38300
O1644       O  0.30777468  0.82726800  0.67839814    -0.38200
O1645       O  0.18156065  0.87385912  0.67200989    -0.38900
O1646       O  0.18215296  0.84660079  0.70143215    -0.39000
C1647       C  0.30802824  0.15745698  0.73478751    -0.11300
C1648       C  0.32829379  0.16198219  0.75004812     0.05700
C1649       C  0.33122264  0.14797457  0.77156752    -0.06600
C1650       C  0.31329501  0.13054606  0.77806778    -0.07300
C1651       C  0.29183643  0.12744648  0.76392246    -0.01900
C1652       C  0.28961352  0.14066161  0.74170925     0.05000
N1653       N  0.26841263  0.13801004  0.72644987     0.67500
H1654       H  0.30571315  0.16808251  0.71808113     0.16400
H1655       H  0.31542259  0.12065075  0.79522552     0.16100
N1656       N  0.35211763  0.15138048  0.78711453     0.75200
O1657       O  0.25132008  0.15397299  0.72751805    -0.38300
O1658       O  0.26934596  0.12324132  0.70852290    -0.38200
O1659       O  0.35114779  0.16741895  0.80392348    -0.38900
O1660       O  0.36909910  0.13528768  0.78733656    -0.39000
C1661       C  0.12532487  0.15003864  0.83048900    -0.11300
C1662       C  0.11064185  0.15065847  0.80930069     0.05700
C1663       C  0.11731523  0.13519080  0.78933317    -0.06600
C1664       C  0.14011012  0.12255639  0.78947602    -0.07300
C1665       C  0.15588879  0.12405778  0.80973745    -0.01900
C1666       C  0.14774195  0.13700731  0.83087336     0.05000
N1667       N  0.16321401  0.13946399  0.85189096     0.67500
H1668       H  0.12055813  0.16145577  0.84622785     0.16400
H1669       H  0.14565421  0.11178309  0.77352790     0.16100
N1670       N  0.10146451  0.13238339  0.76866586     0.75200
O1671       O  0.17818533  0.15722035  0.85307316    -0.38300
O1672       O  0.15870785  0.12684544  0.87088725    -0.38200
O1673       O  0.10958937  0.13730565  0.74742069    -0.38900
O1674       O  0.08207772  0.11962917  0.77092387    -0.39000
C1675       C  0.26687298  0.18794957  0.87470954    -0.11300
C1676       C  0.25398691  0.18627957  0.89716604     0.05700
C1677       C  0.24372299  0.16331812  0.90417696    -0.06600
C1678       C  0.24432686  0.14347380  0.88767383    -0.07300
C1679       C  0.25454770  0.14623493  0.86405458    -0.01900
C1680       C  0.26699576  0.16833814  0.85804597     0.05000
N1681       N  0.27855904  0.17176788  0.83451454     0.67500
H1682       H  0.27518879  0.20522912  0.86908779     0.16400
H1683       H  0.23491938  0.12655750  0.89265546     0.16100
N1684       N  0.23136042  0.16016923  0.92733647     0.75200
O1685       O  0.26753376  0.18415629  0.81828075    -0.38300
O1686       O  0.30140455  0.16724634  0.83193434    -0.38200
O1687       O  0.20804140  0.16200198  0.92850967    -0.38900
O1688       O  0.24276364  0.14991186  0.94471727    -0.39000
C1689       C  0.20587879  0.00997009  0.78159910    -0.11300
C1690       C  0.22593971  0.01779021  0.79584537     0.05700
C1691       C  0.24287659  0.00007300  0.80463933    -0.06600
C1692       C  0.24006308  0.97525961  0.79816438    -0.07300
C1693       C  0.22026952  0.96755338  0.78346802    -0.01900
C1694       C  0.20273933  0.98512345  0.77563541     0.05000
N1695       N  0.18212892  0.97825542  0.76090843     0.67500
H1696       H  0.19246740  0.02326877  0.77495632     0.16400
H1697       H  0.25351305  0.96193557  0.80468165     0.16100
N1698       N  0.26352062  0.00697324  0.81931722     0.75200
O1699       O  0.16164134  0.97336431  0.77117189    -0.38300
O1700       O  0.18298050  0.98185007  0.73799746    -0.38200
O1701       O  0.26315292  0.00237405  0.84205990    -0.38900
O1702       O  0.28375750  0.01259617  0.80895040    -0.39000
C1703       C  0.12989985  0.65323130  0.77110023    -0.11300
C1704       C  0.12843823  0.66432521  0.79432074     0.05700
C1705       C  0.14403348  0.65581036  0.81317363    -0.06600
C1706       C  0.16175288  0.63752591  0.80814223    -0.07300
C1707       C  0.16434545  0.62739439  0.78450076    -0.01900
C1708       C  0.14740354  0.63465582  0.76610970     0.05000
N1709       N  0.14864705  0.62455030  0.74184554     0.67500
H1710       H  0.11789558  0.65953820  0.75652267     0.16400
H1711       H  0.17463313  0.63244651  0.82244511     0.16100
N1712       N  0.14445146  0.66783875  0.83652808     0.75200
O1713       O  0.13645552  0.60540363  0.73697868    -0.38300
O1714       O  0.15766683  0.63717998  0.72447865    -0.38200
O1715       O  0.13473255  0.65754745  0.85504145    -0.38900
O1716       O  0.15845015  0.68614555  0.83946555    -0.39000
C1717       C  0.16516326  0.81209063  0.75765615    -0.11300
C1718       C  0.15853459  0.83525803  0.76736415     0.05700
C1719       C  0.13519121  0.83825163  0.77884352    -0.06600
C1720       C  0.11969028  0.81785112  0.78172627    -0.07300
C1721       C  0.12728410  0.79418033  0.77398420    -0.01900
C1722       C  0.14993938  0.79159245  0.76096096     0.05000
N1723       N  0.15861993  0.76813627  0.75235178     0.67500
H1724       H  0.18288025  0.80954219  0.74836294     0.16400
H1725       H  0.10239356  0.82033131  0.79177429     0.16100
N1726       N  0.12803754  0.86109281  0.79003374     0.75200
O1727       O  0.15374384  0.76141271  0.73073511    -0.38300
O1728       O  0.17523362  0.75687845  0.76411695    -0.38200
O1729       O  0.11107538  0.87393501  0.78056657    -0.38900
O1730       O  0.13501436  0.86585124  0.81158561    -0.39000
C1731       C  0.84491348  0.71128635  0.69087702    -0.11300
C1732       C  0.85414675  0.73539476  0.69178902     0.05700
C1733       C  0.84562817  0.75274609  0.67432820    -0.06600
C1734       C  0.82602221  0.74659258  0.65874441    -0.07300
C1735       C  0.81515064  0.72316179  0.65967435    -0.01900
C1736       C  0.82568283  0.70501773  0.67503792     0.05000
N1737       N  0.81479597  0.68120042  0.67751789     0.67500
H1738       H  0.85131129  0.69759590  0.70389018     0.16400
H1739       H  0.81840343  0.76062485  0.64678594     0.16100
N1740       N  0.85531371  0.77720769  0.67332135     0.75200
O1741       O  0.82354828  0.66340708  0.66516516    -0.38300
O1742       O  0.80120795  0.67684382  0.69602047    -0.38200
O1743       O  0.86981383  0.78309188  0.65595426    -0.38900
O1744       O  0.84575328  0.79389807  0.68659254    -0.39000
C1745       C  0.83946429  0.71529275  0.83021797    -0.11300
C1746       C  0.85694791  0.73430908  0.83086392     0.05700
C1747       C  0.86110741  0.74652649  0.85343284    -0.06600
C1748       C  0.84568618  0.74172397  0.87380217    -0.07300
C1749       C  0.82626342  0.72475071  0.87210434    -0.01900
C1750       C  0.82419618  0.71042108  0.85053763     0.05000
N1751       N  0.80620292  0.69127843  0.84869306     0.67500
H1752       H  0.83647940  0.70509486  0.81337754     0.16400
H1753       H  0.84791552  0.75247634  0.89042532     0.16100
N1754       N  0.88047010  0.76421631  0.85585007     0.75200
O1755       O  0.78622845  0.69538460  0.83751715    -0.38300
O1756       O  0.81271616  0.66930105  0.85281570    -0.38200
O1757       O  0.87514439  0.78687784  0.85702559    -0.38900
O1758       O  0.90184773  0.75702126  0.86185070    -0.39000
C1759       C  0.83974614  0.84699387  0.76479010    -0.11300
C1760       C  0.83363678  0.82403048  0.75474308     0.05700
C1761       C  0.80937686  0.82036605  0.74587241    -0.06600
C1762       C  0.79125465  0.83853379  0.74956546    -0.07300
C1763       C  0.79661600  0.86027571  0.76233536    -0.01900
C1764       C  0.82146681  0.86510403  0.76867876     0.05000
N1765       N  0.82838256  0.88804930  0.77947599     0.67500
H1766       H  0.85843538  0.85040060  0.77100180     0.16400
H1767       H  0.77241850  0.83464975  0.74408745     0.16100
N1768       N  0.80247403  0.79801136  0.73382369     0.75200
O1769       O  0.83337432  0.88891569  0.80206806    -0.38300
O1770       O  0.83499141  0.90556441  0.76565965    -0.38200
O1771       O  0.79382231  0.78048998  0.74647866    -0.38900
O1772       O  0.79855307  0.79839844  0.71100055    -0.39000
C1773       C  0.97643797  0.73470594  0.76110965    -0.11300
C1774       C  0.96289015  0.75324168  0.77337116     0.05700
C1775       C  0.97377833  0.76543077  0.79345807    -0.06600
C1776       C  0.99763827  0.75876112  0.80098739    -0.07300
C1777       C  0.01124844  0.74024807  0.78868947    -0.01900
C1778       C  0.00042959  0.72827723  0.76839718     0.05000
N1779       N  0.01319377  0.70907829  0.75535177     0.67500
H1780       H  0.96827792  0.72494557  0.74583235     0.16400
H1781       H  0.00564896  0.76838204  0.81642663     0.16100
N1782       N  0.96048610  0.78382608  0.80714746     0.75200
O1783       O  0.00962090  0.68692046  0.76144081    -0.38300
O1784       O  0.02335847  0.71378167  0.73488706    -0.38200
O1785       O  0.94879263  0.77779551  0.82643204    -0.38900
O1786       O  0.96422519  0.80633366  0.80264915    -0.39000
C1787       C  0.27710705  0.67194081  0.17939564    -0.11300
C1788       C  0.25633115  0.66924963  0.16435842     0.05700
C1789       C  0.24180846  0.64765437  0.16672507    -0.06600
C1790       C  0.24648560  0.63096295  0.18582226    -0.07300
C1791       C  0.26622128  0.63475178  0.20182617    -0.01900
C1792       C  0.28227771  0.65478612  0.19782230     0.05000
N1793       N  0.30281439  0.65904417  0.21359169     0.67500
H1794       H  0.28868110  0.68814493  0.17778186     0.16400
H1795       H  0.23444795  0.61521491  0.18838696     0.16100
N1796       N  0.22172333  0.64280407  0.15054681     0.75200
O1797       O  0.32438327  0.65342172  0.20625752    -0.38300
O1798       O  0.30002850  0.67255943  0.23233196    -0.38200
O1799       O  0.22498752  0.62834276  0.13260242    -0.38900
O1800       O  0.20002744  0.64950287  0.15642244    -0.39000
C1801       C  0.14345813  0.70503154  0.22087419    -0.11300
C1802       C  0.12652073  0.72469750  0.22260229     0.05700
C1803       C  0.12440326  0.74106455  0.20238417    -0.06600
C1804       C  0.14040986  0.73855364  0.18206321    -0.07300
C1805       C  0.15906762  0.72052683  0.18174101    -0.01900
C1806       C  0.15993037  0.70304009  0.20092749     0.05000
N1807       N  0.17776528  0.68344130  0.20081420     0.67500
H1808       H  0.14512127  0.69196129  0.23583132     0.16400
H1809       H  0.13962911  0.75215396  0.16748806     0.16100
N1810       N  0.10753263  0.76148211  0.20284337     0.75200
O1811       O  0.19874944  0.68698067  0.21017477    -0.38300
O1812       O  0.17035705  0.66161541  0.19789350    -0.38200
O1813       O  0.11467902  0.78198451  0.21108308    -0.38900
O1814       O  0.08818703  0.76064208  0.19005599    -0.39000
C1815       C  0.35140106  0.71649229  0.88068368    -0.11300
C1816       C  0.36262886  0.73704623  0.86955349     0.05700
C1817       C  0.35618785  0.76084822  0.87784432    -0.06600
C1818       C  0.33669436  0.76383238  0.89480286    -0.07300
C1819       C  0.32310899  0.74339093  0.90323420    -0.01900
C1820       C  0.33151122  0.71948792  0.89720283     0.05000
N1821       N  0.31943346  0.69813959  0.90685853     0.67500
H1822       H  0.35641888  0.69801326  0.87478588     0.16400
H1823       H  0.33082988  0.78236752  0.89967477     0.16100
N1824       N  0.36845777  0.78217048  0.86834793     0.75200
O1825       O  0.30257728  0.68791797  0.89467546    -0.38300
O1826       O  0.32886205  0.68686094  0.92478257    -0.38200
O1827       O  0.35892403  0.79413499  0.85092317    -0.38900
O1828       O  0.38599238  0.79154881  0.88026383    -0.39000
C1829       C  0.16103885  0.76903981  0.89507148    -0.11300
C1830       C  0.17532529  0.74808492  0.90065519     0.05700
C1831       C  0.16558947  0.72456998  0.89558895    -0.06600
C1832       C  0.14297416  0.72255030  0.88323748    -0.07300
C1833       C  0.13019670  0.74364649  0.87509178    -0.01900
C1834       C  0.13876860  0.76705146  0.88235809     0.05000
N1835       N  0.12550605  0.78908271  0.87634616     0.67500
H1836       H  0.16778112  0.78729939  0.89943846     0.16400
H1837       H  0.13629473  0.70438189  0.87856455     0.16100
N1838       N  0.17854217  0.70263349  0.90248250     0.75200
O1839       O  0.10919303  0.79718040  0.89112532    -0.38300
O1840       O  0.13372135  0.80300484  0.85958311    -0.38200
O1841       O  0.17357033  0.69252272  0.92282318    -0.38900
O1842       O  0.19140167  0.69110898  0.88666715    -0.39000
C1843       C  0.23167778  0.84370522  0.87905087    -0.11300
C1844       C  0.25183243  0.82736358  0.87793449     0.05700
C1845       C  0.26812009  0.82822311  0.85749480    -0.06600
C1846       C  0.26292693  0.84386324  0.83773653    -0.07300
C1847       C  0.24137216  0.85851222  0.83767766    -0.01900
C1848       C  0.22610912  0.85900652  0.85908812     0.05000
N1849       N  0.20389792  0.87347065  0.86029726     0.67500
H1850       H  0.21894705  0.84311826  0.89460510     0.16400
H1851       H  0.27518969  0.84347873  0.82182077     0.16100
N1852       N  0.28967561  0.81280750  0.85625335     0.75200
O1853       O  0.18358419  0.86383905  0.85432298    -0.38300
O1854       O  0.20373011  0.89342923  0.87223924    -0.38200
O1855       O  0.28991719  0.79418534  0.84232191    -0.38900
O1856       O  0.30975250  0.82044965  0.86508157    -0.39000
C1857       C  0.25109684  0.76763993  0.02155890    -0.11300
C1858       C  0.23988140  0.75186899  0.00462175     0.05700
C1859       C  0.22518543  0.73217049  0.01340215    -0.06600
C1860       C  0.22204011  0.72862848  0.03870534    -0.07300
C1861       C  0.23366458  0.74409177  0.05563882    -0.01900
C1862       C  0.24836980  0.76379415  0.04686448     0.05000
N1863       N  0.26013711  0.78049596  0.06332846     0.67500
H1864       H  0.26237010  0.78287241  0.01514855     0.16400
H1865       H  0.21059251  0.71352805  0.04512323     0.16100
N1866       N  0.21272366  0.71599339  0.99693913     0.75200
O1867       O  0.28226276  0.77651562  0.06955639    -0.38300
O1868       O  0.25057958  0.80145607  0.06718886    -0.38200
O1869       O  0.22200449  0.69509781  0.99216421    -0.38900
O1870       O  0.19049786  0.72040522  0.99135314    -0.39000
C1871       C  0.20866819  0.14584357  0.36317244    -0.11300
C1872       C  0.23010023  0.13287126  0.35584347     0.05700
C1873       C  0.25278812  0.13844896  0.36703855    -0.06600
C1874       C  0.25386661  0.15765262  0.38441301    -0.07300
C1875       C  0.23255349  0.17158027  0.39078628    -0.01900
C1876       C  0.20971589  0.16512941  0.38021256     0.05000
N1877       N  0.18741574  0.17828476  0.38612007     0.67500
H1878       H  0.19108801  0.14196386  0.35454965     0.16400
H1879       H  0.27158187  0.16208678  0.39245492     0.16100
N1880       N  0.27471444  0.12464003  0.36105922     0.75200
O1881       O  0.18084467  0.19617409  0.37282489    -0.38300
O1882       O  0.17203595  0.16899755  0.40106049    -0.38200
O1883       O  0.29240089  0.13477372  0.34961509    -0.38900
O1884       O  0.27582663  0.10190764  0.36593783    -0.39000
C1885       C  0.26911419  0.12924896  0.21290429    -0.11300
C1886       C  0.24679072  0.11615071  0.21458849     0.05700
C1887       C  0.23132667  0.11531739  0.19374550    -0.06600
C1888       C  0.23671818  0.13005701  0.17329157    -0.07300
C1889       C  0.25737597  0.14565247  0.17296847    -0.01900
C1890       C  0.27454581  0.14395657  0.19238461     0.05000
N1891       N  0.29606166  0.15919136  0.19305810     0.67500
H1892       H  0.28151623  0.12978644  0.22842455     0.16400
H1893       H  0.22359890  0.13065094  0.15835509     0.16100
N1894       N  0.20905387  0.10115329  0.19366887     0.75200
O1895       O  0.29518701  0.17934161  0.20466727    -0.38300
O1896       O  0.31685446  0.15017347  0.18697456    -0.38200
O1897       O  0.18841694  0.11179623  0.19698634    -0.38900
O1898       O  0.20962841  0.07932131  0.18563310    -0.39000
C1899       C  0.16204994  0.17156940  0.29626389    -0.11300
C1900       C  0.15792844  0.14939894  0.28366102     0.05700
C1901       C  0.13655043  0.14688549  0.26939059    -0.06600
C1902       C  0.12070538  0.16711030  0.26645825    -0.07300
C1903       C  0.12588247  0.19004938  0.27739300    -0.01900
C1904       C  0.14621993  0.19181380  0.29340170     0.05000
N1905       N  0.15178060  0.21417597  0.30606437     0.67500
H1906       H  0.17817378  0.17347250  0.30782633     0.16400
H1907       H  0.10511172  0.16517346  0.25424072     0.16100
N1908       N  0.13202129  0.12487851  0.25573185     0.75200
O1909       O  0.14371926  0.21724732  0.32772915    -0.38300
O1910       O  0.16905652  0.22771229  0.29811893    -0.38200
O1911       O  0.11541700  0.11019004  0.26297159    -0.38900
O1912       O  0.14104907  0.12259924  0.23433612    -0.39000
C1913       C  0.31232679  0.83284888  0.25300690    -0.11300
C1914       C  0.30823359  0.85177920  0.27011816     0.05700
C1915       C  0.32493274  0.85479640  0.28951336    -0.06600
C1916       C  0.34468763  0.83806457  0.29221813    -0.07300
C1917       C  0.34807052  0.81817668  0.27574787    -0.01900
C1918       C  0.33199111  0.81619103  0.25551675     0.05000
N1919       N  0.33473173  0.79687642  0.23778241     0.67500
H1920       H  0.29940303  0.83020118  0.23819649     0.16400
H1921       H  0.35677093  0.84008975  0.30785423     0.16100
N1922       N  0.32212516  0.87483577  0.30640304     0.75200
O1923       O  0.32065586  0.77838643  0.23891151    -0.38300
O1924       O  0.34735692  0.80064850  0.21849014    -0.38200
O1925       O  0.31220200  0.87133398  0.32721755    -0.38900
O1926       O  0.32777627  0.89640822  0.29978894    -0.39000
C1927       C  0.18405374  0.82241761  0.30181358    -0.11300
C1928       C  0.17728491  0.84451181  0.29024558     0.05700
C1929       C  0.15216785  0.84813340  0.28375951    -0.06600
C1930       C  0.13497268  0.82913290  0.28733911    -0.07300
C1931       C  0.14237186  0.80628006  0.29686837    -0.01900
C1932       C  0.16706246  0.80330147  0.30492019     0.05000
N1933       N  0.17559641  0.78062384  0.31534383     0.67500
H1934       H  0.20309580  0.81923538  0.30715882     0.16400
H1935       H  0.11608102  0.83182878  0.28128667     0.16100
N1936       N  0.14394468  0.87048593  0.27251873     0.75200
O1937       O  0.18709404  0.76531830  0.30187605    -0.38300
O1938       O  0.17677175  0.77854914  0.33840320    -0.38200
O1939       O  0.14182724  0.87140260  0.24945186    -0.38900
O1940       O  0.13371449  0.88691706  0.28563651    -0.39000
C1941       C  0.25032427  0.81981767  0.16473920    -0.11300
C1942       C  0.22726364  0.80854441  0.16136531     0.05700
C1943       C  0.20556743  0.82075540  0.16979169    -0.06600
C1944       C  0.20755318  0.84240500  0.18351047    -0.07300
C1945       C  0.23079652  0.85217634  0.18929660    -0.01900
C1946       C  0.25225766  0.84171539  0.17827671     0.05000
N1947       N  0.27628248  0.85192601  0.18212369     0.67500
H1948       H  0.26705717  0.81112378  0.15760341     0.16400
H1949       H  0.19084935  0.85031884  0.19159068     0.16100
N1950       N  0.18156959  0.81006304  0.16712061     0.75200
O1951       O  0.29255239  0.83931389  0.19295646    -0.38300
O1952       O  0.28278872  0.87072067  0.17005828    -0.38200
O1953       O  0.17453869  0.79352046  0.18190915    -0.38900
O1954       O  0.16593816  0.82025020  0.15329046    -0.39000
C1955       C  0.21010592  0.97982221  0.26225940    -0.11300
C1956       C  0.22757822  0.96654737  0.27600129     0.05700
C1957       C  0.24030698  0.97869590  0.29501790    -0.06600
C1958       C  0.23642219  0.00390664  0.29899588    -0.07300
C1959       C  0.21940879  0.01722987  0.28488407    -0.01900
C1960       C  0.20575455  0.00489115  0.26670034     0.05000
N1961       N  0.18846686  0.01784618  0.25164331     0.67500
H1962       H  0.19988589  0.97075921  0.24781700     0.16400
H1963       H  0.24693638  0.01316734  0.31310307     0.16100
N1964       N  0.25783513  0.96596654  0.30994524     0.75200
O1965       O  0.19610465  0.03053731  0.23367788    -0.38300
O1966       O  0.16568439  0.01780282  0.25717808    -0.38200
O1967       O  0.28073117  0.96893990  0.30607143    -0.38900
O1968       O  0.25060313  0.95578090  0.32959119    -0.39000
loop_ 
_geom_bond_atom_site_label_1 
_geom_bond_atom_site_label_2 
_geom_bond_distance 
_geom_bond_site_symmetry_2 
_ccdc_geom_bond_type 
O1            C4   1.269       .  A
O1           Cd6   2.464       .  S
C2           O11   1.263       .  A
C2            O7   1.269       .  A
C2         C1914   1.475       .  S
O3            C9   1.264       .  A
O3           Cd6   2.412       .  S
C4           O12   1.263       .  A
C4         C1928   1.484       .  S
C5           O10   1.262       .  A
C5            O8   1.264       .  A
C5         C1956   1.479       .  S
Cd6          O13   2.491       .  S
Cd6          O12   2.457       .  S
Cd6          O11   2.436       .  S
Cd6           O7   2.497       .  S
Cd6          O10   2.459       .  S
Cd6           O8   2.462       .  S
C9           O13   1.267       .  A
C9         C1945   1.478       .  S
O14          C17   1.271       .  A
O14         Cd19   2.483       .  S
C15          O24   1.266       .  A
C15          O20   1.272       .  A
C15        C1872   1.480       .  S
O16          C22   1.271       .  A
O16         Cd19   2.475       .  S
C17          O25   1.263       .  A
C17        C1886   1.486       .  S
C18          O23   1.267       .  A
C18          O21   1.267       .  A
C18        C1959   1.472       .  S
Cd19         O26   2.380       .  S
Cd19         O25   2.429       .  S
Cd19         O24   2.423       .  S
Cd19         O20   2.481       .  S
Cd19         O23   2.439       .  S
Cd19         O21   2.431       .  S
C22          O26   1.264       .  A
C22        C1900   1.468       .  S
O27          C30   1.272       .  A
O27         Cd32   2.464       .  S
C28          O37   1.264       .  A
C28          O33   1.272       .  A
C28        C1830   1.482       .  S
O29          C35   1.271       .  A
O29         Cd32   2.455       .  S
C30          O38   1.266       .  A
C30        C1819   1.476       .  S
C31          O36   1.272       .  A
C31          O34   1.265       .  A
C31        C1844   1.475       .  S
Cd32         O39   2.423       .  S
Cd32         O38   2.426       .  S
Cd32         O37   2.408       .  S
Cd32         O33   2.498       .  S
Cd32         O36   2.484       .  S
Cd32         O34   2.416       .  S
C35          O39   1.265       .  A
C35        C1858   1.476   1_556  S
O40          C43   1.270       .  A
O40         Cd45   2.463       .  S
C41          O50   1.267       .  A
C41          O46   1.271       .  A
C41        C1788   1.482       .  S
O42          C48   1.272       .  A
O42         Cd45   2.489       .  S
C43          O51   1.264       .  A
C43        C1942   1.477       .  S
C44          O49   1.270       .  A
C44          O47   1.264       .  A
C44        C1861   1.476       .  S
Cd45         O52   2.405       .  S
Cd45         O51   2.420       .  S
Cd45         O50   2.438       .  S
Cd45         O46   2.442       .  S
Cd45         O49   2.458       .  S
Cd45         O47   2.427       .  S
C48          O52   1.262       .  A
C48        C1805   1.472       .  S
O53          C56   1.268       .  A
O53         Cd58   2.462       .  S
C54          O63   1.268       .  A
C54          O59   1.269       .  A
C54        C1732   1.486       .  S
O55          C61   1.272       .  A
O55         Cd58   2.493       .  S
C56          O64   1.264       .  A
C56        C1746   1.482       .  S
C57          O62   1.268       .  A
C57          O60   1.265       .  A
C57        C1774   1.480       .  S
Cd58         O65   2.403       .  S
Cd58         O64   2.462       .  S
Cd58         O63   2.472       .  S
Cd58         O59   2.439       .  S
Cd58         O62   2.473       .  S
Cd58         O60   2.437       .  S
C61          O65   1.262       .  A
C61        C1760   1.477       .  S
O66          C69   1.267       .  A
O66         Cd71   2.470       .  S
C67          O76   1.266       .  A
C67          O72   1.268       .  A
C67        C1704   1.474       .  S
O68          C74   1.266       .  A
O68         Cd71   2.488       .  S
C69          O77   1.264       .  A
C69        C1721   1.480       .  S
C70          O75   1.266       .  A
C70          O73   1.262       .  A
C70        C1777   1.483       .  S
Cd71         O78   2.453       .  S
Cd71         O77   2.419       .  S
Cd71         O76   2.442       .  S
Cd71         O72   2.453       .  S
Cd71         O75   2.477       .  S
Cd71         O73   2.465       .  S
C74          O78   1.263       .  A
C74        C1833   1.483       .  S
O79          C82   1.270       .  A
O79         Cd84   2.466       .  S
C80          O89   1.265       .  A
C80          O85   1.269       .  A
C80        C1665   1.479       .  S
O81          C87   1.270       .  A
O81         Cd84   2.491       .  S
C82          O90   1.266       .  A
C82        C1651   1.479       .  S
C83          O88   1.273       .  A
C83          O86   1.262       .  A
C83        C1679   1.476       .  S
Cd84         O91   2.405       .  S
Cd84         O90   2.418       .  S
Cd84         O89   2.440       .  S
Cd84         O85   2.472       .  S
Cd84         O88   2.488       .  S
Cd84         O86   2.389       .  S
C87          O91   1.264       .  A
C87        C1690   1.477       .  S
O92          C95   1.270       .  A
O92         Cd97   2.469       .  S
C93         O102   1.264       .  A
C93          O98   1.271       .  A
C93        C1847   1.486       .  S
O94         C100   1.269       .  A
O94         Cd97   2.464       .  S
C95         O103   1.266       .  A
C95        C1634   1.484       .  S
C96         O101   1.272       .  A
C96          O99   1.264       .  A
C96        C1718   1.475       .  S
Cd97        O104   2.419       .  S
Cd97        O103   2.451       .  S
Cd97        O102   2.437       .  S
Cd97         O98   2.469       .  S
Cd97        O101   2.481       .  S
Cd97         O99   2.376       .  S
C100        O104   1.266       .  A
C100       C1693   1.477       .  S
O105        C108   1.269       .  A
O105       Cd110   2.477       .  S
C106        O115   1.264       .  A
C106        O111   1.269       .  A
C106       C1903   1.481       .  S
O107        C113   1.266       .  A
O107       Cd110   2.487       .  S
C108        O116   1.264       .  A
C108       C1592   1.478       .  S
C109        O114   1.263       .  A
C109        O112   1.265       .  A
C109       C1606   1.484       .  S
Cd110       O117   2.447       .  S
Cd110       O116   2.442       .  S
Cd110       O115   2.404       .  S
Cd110       O111   2.486       .  S
Cd110       O114   2.466       .  S
Cd110       O112   2.470       .  S
C113        O117   1.261       .  A
C113       C1623   1.479       .  S
O118        C121   1.271       .  A
O118       Cd123   2.487       .  S
C119        O128   1.265       .  A
C119        O124   1.272       .  A
C119       C1550   1.471       .  S
O120        C126   1.274       .  A
O120       Cd123   2.514       .  S
C121        O129   1.266       .  A
C121       C1564   1.482       .  S
C122        O127   1.271       .  A
C122        O125   1.265       .  A
C122       C1620   1.475       .  S
Cd123       O130   2.393       .  S
Cd123       O129   2.424       .  S
Cd123       O128   2.413       .  S
Cd123       O124   2.474       .  S
Cd123       O127   2.484       .  S
Cd123       O125   2.411       .  S
C126        O130   1.264       .  A
C126       C1578   1.480       .  S
O131        C134   1.268       .  A
O131       Cd136   2.429       .  S
C132        O141   1.268       .  A
C132        O137   1.269       .  A
C132       C1494   1.482       .  S
O133        C139   1.276       .  A
O133       Cd136   2.526       .  S
C134        O142   1.267       .  A
C134       C1508   1.481       .  S
C135        O140   1.274       .  A
C135        O138   1.263       .  A
C135       C1536   1.478       .  S
Cd136       O143   2.354       .  S
Cd136       O142   2.463       .  S
Cd136       O141   2.461       .  S
Cd136       O137   2.432       .  S
Cd136       O140   2.504       .  S
Cd136       O138   2.391       .  S
C139        O143   1.262       .  A
C139       C1522   1.476       .  S
O144        C147   1.270       .  A
O144       Cd149   2.486       .  S
C145        O154   1.265       .  A
C145        O150   1.270       .  A
C145       C1469   1.484       .  S
O146        C152   1.272       .  A
O146       Cd149   2.513       .  S
C147        O155   1.265       .  A
C147       C1581   1.485       .  S
C148        O153   1.268       .  A
C148        O151   1.266       .  A
C148       C1539   1.486       .  S
Cd149       O156   2.383       .  S
Cd149       O155   2.429       .  S
Cd149       O154   2.443       .  S
Cd149       O150   2.481       .  S
Cd149       O153   2.471       .  S
Cd149       O151   2.460       .  S
C152        O156   1.262       .  A
C152       C1483   1.481       .  S
O157        C160   1.270       .  A
O157       Cd162   2.469       .  S
C158        O167   1.267       .  A
C158        O163   1.271       .  A
C158       C1424   1.484       .  S
O159        C165   1.273       .  A
O159       Cd162   2.494       .  S
C160        O168   1.263       .  A
C160       C1676   1.480       .  S
C161        O166   1.268       .  A
C161        O164   1.265       .  A
C161       C1452   1.471   1_556  S
Cd162       O169   2.418       .  S
Cd162       O168   2.432       .  S
Cd162       O167   2.451       .  S
Cd162       O163   2.449       .  S
Cd162       O166   2.462       .  S
Cd162       O164   2.453       .  S
C165        O169   1.263       .  A
C165       C1438   1.484       .  S
O170        C173   1.268       .  A
O170       Cd175   2.441       .  S
C171        O180   1.264       .  A
C171        O176   1.269       .  A
C171       C1609   1.484       .  S
O172        C178   1.266       .  A
O172       Cd175   2.461       .  S
C173        O181   1.267       .  A
C173       C1410   1.485       .  S
C174        O179   1.266       .  A
C174        O177   1.264       .  A
C174       C1889   1.483       .  S
Cd175       O182   2.469       .  S
Cd175       O181   2.467       .  S
Cd175       O180   2.434       .  S
Cd175       O176   2.493       .  S
Cd175       O179   2.450       .  S
Cd175       O177   2.476       .  S
C178        O182   1.264       .  A
C178       C1455   1.484       .  S
O183        C186   1.268       .  A
O183       Cd188   2.455       .  S
C184        O193   1.270       .  A
C184        O189   1.268       .  A
C184       C1354   1.482       .  S
O185        C191   1.274       .  A
O185       Cd188   2.524       .  S
C186        O194   1.263       .  A
C186       C1368   1.481       .  S
C187        O192   1.271       .  A
C187        O190   1.264       .  A
C187       C1396   1.485       .  S
Cd188       O195   2.387       .  S
Cd188       O194   2.436       .  S
Cd188       O193   2.484       .  S
Cd188       O189   2.442       .  S
Cd188       O192   2.499       .  S
Cd188       O190   2.437       .  S
C191        O195   1.263       .  A
C191       C1382   1.481       .  S
O196        C199   1.267       .  A
O196       Cd201   2.481       .  S
C197        O206   1.265       .  A
C197        O202   1.269       .  A
C197       C1340   1.491       .  S
O198        C204   1.264       .  A
O198       Cd201   2.428       .  S
C199        O207   1.262       .  A
C199       C1441   1.488       .  S
C200        O205   1.266       .  A
C200        O203   1.263       .  A
C200       C1399   1.492   1_455  S
Cd201       O208   2.506       .  S
Cd201       O207   2.473       .  S
Cd201       O206   2.483       .  S
Cd201       O202   2.499       .  S
Cd201       O205   2.510       .  S
Cd201       O203   2.487       .  S
C204        O208   1.268       .  A
C204       C1662   1.488       .  S
O209        C212   1.269       .  A
O209       Cd214   2.462       .  S
C210        O219   1.264       .  A
C210        O215   1.267       .  A
C210       C1480   1.481       .  S
O211        C217   1.265       .  A
O211       Cd214   2.483       .  S
C212        O220   1.265       .  A
C212       C1315   1.480       .  S
C213        O218   1.266       .  A
C213        O216   1.263       .  A
C213       C1567   1.479       .  S
Cd214       O221   2.444       .  S
Cd214       O220   2.464       .  S
Cd214       O219   2.439       .  S
Cd214       O215   2.468       .  S
Cd214       O218   2.485       .  S
Cd214       O216   2.444       .  S
C217        O221   1.262       .  A
C217       C1326   1.477       .  S
O222        C225   1.270       .  A
O222       Cd227   2.473       .  S
C223        O232   1.267       .  A
C223        O228   1.270       .  A
C223       C1284   1.486       .  S
O224        C230   1.263       .  A
O224       Cd227   2.359       .  S
C225        O233   1.264       .  A
C225       C1385   1.484       .  S
C226        O231   1.269       .  A
C226        O229   1.266       .  A
C226       C1329   1.480   1_556  S
Cd227       O234   2.503       .  S
Cd227       O233   2.436       .  S
Cd227       O232   2.453       .  S
Cd227       O228   2.473       .  S
Cd227       O231   2.450       .  S
Cd227       O229   2.439       .  S
C230        O234   1.272       .  A
C230       C1298   1.472       .  S
O235        C238   1.269       .  A
O235       Cd240   2.459       .  S
C236        O245   1.267       .  A
C236        O241   1.272       .  A
C236       C1242   1.479       .  S
O237        C243   1.274       .  A
O237       Cd240   2.479       .  S
C238        O246   1.265       .  A
C238       C1763   1.480       .  S
C239        O244   1.271       .  A
C239        O242   1.265       .  A
C239       C1270   1.475       .  S
Cd240       O247   2.408       .  S
Cd240       O246   2.452       .  S
Cd240       O245   2.440       .  S
Cd240       O241   2.433       .  S
Cd240       O244   2.472       .  S
Cd240       O242   2.405       .  S
C243        O247   1.263       .  A
C243       C1256   1.479       .  S
O248        C251   1.268       .  A
O248       Cd253   2.468       .  S
C249        O258   1.268       .  A
C249        O254   1.269       .  A
C249       C1228   1.478       .  S
O250        C256   1.271       .  A
O250       Cd253   2.476       .  S
C251        O259   1.263       .  A
C251       C1301   1.478       .  S
C252        O257   1.269       .  A
C252        O255   1.265       .  A
C252       C1273   1.479       .  S
Cd253       O260   2.405       .  S
Cd253       O259   2.426       .  S
Cd253       O258   2.445       .  S
Cd253       O254   2.445       .  S
Cd253       O257   2.485       .  S
Cd253       O255   2.403       .  S
C256        O260   1.262       .  A
C256       C1371   1.471       .  S
O261        C264   1.273       .  A
O261       Cd266   2.464       .  S
C262        O271   1.267       .  A
C262        O267   1.273       .  A
C262       C1203   1.485       .  S
O263        C269   1.275       .  A
O263       Cd266   2.486       .  S
C264        O272   1.264       .  A
C264       C1802   1.485       .  S
C265        O270   1.271       .  A
C265        O268   1.267       .  A
C265       C1214   1.482       .  S
Cd266       O273   2.387       .  S
Cd266       O272   2.428       .  S
Cd266       O271   2.441       .  S
Cd266       O267   2.456       .  S
Cd266       O270   2.460       .  S
Cd266       O268   2.449       .  S
C269        O273   1.264       .  A
C269       C1931   1.479       .  S
O274        C277   1.271       .  A
O274       Cd279   2.499       .  S
C275        O284   1.267       .  A
C275        O280   1.272       .  A
C275       C1172   1.481       .  S
O276        C282   1.273       .  A
O276       Cd279   2.493       .  S
C277        O285   1.264       .  A
C277       C1525   1.485       .  S
C278        O283   1.269       .  A
C278        O281   1.267       .  A
C278       C1217   1.486       .  S
Cd279       O286   2.409       .  S
Cd279       O285   2.419       .  S
Cd279       O284   2.442       .  S
Cd279       O280   2.459       .  S
Cd279       O283   2.475       .  S
Cd279       O281   2.463       .  S
C282        O286   1.262       .  A
C282       C1189   1.483       .  S
O287        C290   1.268       .  A
O287       Cd292   2.442       .  S
C288        O297   1.266       .  A
C288        O293   1.268       .  A
C288       C1147   1.481       .  S
O289        C295   1.263       .  A
O289       Cd292   2.442       .  S
C290        O298   1.264       .  A
C290       C1186   1.483       .  S
C291        O296   1.266       .  A
C291        O294   1.261       .  A
C291       C1161   1.477       .  S
Cd292       O299   2.472       .  S
Cd292       O298   2.465       .  S
Cd292       O297   2.447       .  S
Cd292       O293   2.470       .  S
Cd292       O296   2.485       .  S
Cd292       O294   2.417       .  S
C295        O299   1.265       .  A
C295       C1511   1.478       .  S
O300        C303   1.268       .  A
O300       Cd305   2.466       .  S
C301        O310   1.268       .  A
C301        O306   1.270       .  A
C301       C1130   1.476       .  S
O302        C308   1.272       .  A
O302       Cd305   2.502       .  S
C303        O311   1.262       .  A
C303       C1259   1.481       .  S
C304        O309   1.268       .  A
C304        O307   1.264       .  A
C304       C1158   1.475   1_556  S
Cd305       O312   2.406       .  S
Cd305       O311   2.443       .  S
Cd305       O310   2.435       .  S
Cd305       O306   2.460       .  S
Cd305       O309   2.472       .  S
Cd305       O307   2.434       .  S
C308        O312   1.262       .  A
C308       C1749   1.478       .  S
O313        C316   1.270       .  A
O313       Cd318   2.435       .  S
C314        O323   1.264       .  A
C314        O319   1.269       .  A
C314       C1088   1.486       .  S
O315        C321   1.273       .  A
O315       Cd318   2.523       .  S
C316        O324   1.269       .  A
C316       C1343   1.488       .  S
C317        O322   1.274       .  A
C317        O320   1.262       .  A
C317       C1102   1.481       .  S
Cd318       O325   2.427       .  S
Cd318       O324   2.480       .  S
Cd318       O323   2.433       .  S
Cd318       O319   2.495       .  S
Cd318       O322   2.511       .  S
Cd318       O320   2.429       .  S
C321        O325   1.263       .  A
C321       C1116   1.491       .  S
O326        C329   1.269       .  A
O326       Cd331   2.475       .  S
C327        O336   1.264       .  A
C327        O332   1.268       .  A
C327       C1875   1.489       .  S
O328        C334   1.263       .  A
O328       Cd331   2.452       .  S
C329        O337   1.266       .  A
C329       C1060   1.486       .  S
C330        O335   1.265       .  A
C330        O333   1.261       .  A
C330       C1119   1.480       .  S
Cd331       O338   2.462       .  S
Cd331       O337   2.444       .  S
Cd331       O336   2.481       .  S
Cd331       O332   2.487       .  S
Cd331       O335   2.489       .  S
Cd331       O333   2.475       .  S
C334        O338   1.266       .  A
C334       C1074   1.479       .  S
O339        C342   1.270       .  A
O339       Cd344   2.458       .  S
C340        O349   1.267       .  A
C340        O345   1.272       .  A
C340       C1707   1.483       .  S
O341        C347   1.275       .  A
O341       Cd344   2.491       .  S
C342        O350   1.265       .  A
C342       C1018   1.485       .  S
C343        O348   1.270       .  A
C343        O346   1.265       .  A
C343       C1046   1.479       .  S
Cd344       O351   2.393       .  S
Cd344       O350   2.454       .  S
Cd344       O349   2.441       .  S
Cd344       O345   2.442       .  S
Cd344       O348   2.473       .  S
Cd344       O346   2.435       .  S
C347        O351   1.262       .  A
C347       C1035   1.478       .  S
O352        C355   1.270       .  A
O352       Cd357   2.479       .  S
C353        O362   1.267       .  A
C353        O358   1.271       .  A
C353       C1427   1.484       .  S
O354        C360   1.272       .  A
O354       Cd357   2.487       .  S
C355        O363   1.263       .  A
C355       C1105   1.488       .  S
C356        O361   1.269       .  A
C356        O359   1.265       .  A
C356       C1049   1.479       .  S
Cd357       O364   2.370       .  S
Cd357       O363   2.451       .  S
Cd357       O362   2.469       .  S
Cd357       O358   2.456       .  S
Cd357       O361   2.462       .  S
Cd357       O359   2.426       .  S
C360        O364   1.263       .  A
C360       C1004   1.470       .  S
O365        C368   1.269       .  A
O365       Cd370   2.498       .  S
C366        O375   1.267       .  A
C366        O371   1.272       .  A
C366       C1466   1.485       .  S
O367        C373   1.273       .  A
O367       Cd370   2.483       .  S
C368        O376   1.263       .  A
C368        C965   1.482       .  S
C369        O374   1.268       .  A
C369        O372   1.267       .  A
C369        C990   1.480       .  S
Cd370       O377   2.387       .  S
Cd370       O376   2.420       .  S
Cd370       O375   2.458       .  S
Cd370       O371   2.436       .  S
Cd370       O374   2.469       .  S
Cd370       O372   2.441       .  S
C373        O377   1.262       .  A
C373        C976   1.475       .  S
O378        C381   1.268       .  A
O378       Cd383   2.471       .  S
C379        O388   1.264       .  A
C379        O384   1.271       .  A
C379       C1077   1.477       .  S
O380        C386   1.267       .  A
O380       Cd383   2.449       .  S
C381        O389   1.266       .  A
C381       C1413   1.485       .  S
C382        O387   1.266       .  A
C382        O385   1.262       .  A
C382        C948   1.475       .  S
Cd383       O390   2.464       .  S
Cd383       O389   2.451       .  S
Cd383       O388   2.416       .  S
Cd383       O384   2.473       .  S
Cd383       O387   2.485       .  S
Cd383       O385   2.426       .  S
C386        O390   1.264       .  A
C386        C993   1.480       .  S
O391        C394   1.270       .  A
O391       Cd396   2.448       .  S
C392        O401   1.266       .  A
C392        O397   1.269       .  A
C392       C1231   1.477       .  S
O393        C399   1.272       .  A
O393       Cd396   2.504       .  S
C394        O402   1.265       .  A
C394        C909   1.483       .  S
C395        O400   1.268       .  A
C395        O398   1.262       .  A
C395        C934   1.465       .  S
Cd396       O403   2.390       .  S
Cd396       O402   2.449       .  S
Cd396       O401   2.427       .  S
Cd396       O397   2.469       .  S
Cd396       O400   2.473       .  S
Cd396       O398   2.418       .  S
C399        O403   1.262       .  A
C399        C923   1.478       .  S
O404        C407   1.268       .  A
O404       Cd409   2.440       .  S
C405        O414   1.266       .  A
C405        O410   1.267       .  A
C405       C1553   1.483       .  S
O406        C412   1.264       .  A
O406       Cd409   2.434       .  S
C407        O415   1.264       .  A
C407        C979   1.481       .  S
C408        O413   1.265       .  A
C408        O411   1.262       .  A
C408        C937   1.479       .  S
Cd409       O416   2.464       .  S
Cd409       O415   2.455       .  S
Cd409       O414   2.462       .  S
Cd409       O410   2.461       .  S
Cd409       O413   2.477       .  S
Cd409       O411   2.423       .  S
C412        O416   1.265       .  A
C412        C892   1.474       .  S
O417        C420   1.269       .  A
O417       Cd422   2.473       .  S
C418        O427   1.268       .  A
C418        O423   1.270       .  A
C418       C1637   1.485       .  S
O419        C425   1.273       .  A
O419       Cd422   2.508       .  S
C420        O428   1.263       .  A
C420       C1032   1.481       .  S
C421        O426   1.270       .  A
C421        O424   1.265       .  A
C421        C878   1.478       .  S
Cd422       O429   2.372       .  S
Cd422       O428   2.443       .  S
Cd422       O427   2.472       .  S
Cd422       O423   2.445       .  S
Cd422       O426   2.477       .  S
Cd422       O424   2.420       .  S
C425        O429   1.263       .  A
C425        C867   1.476       .  S
O430        C433   1.272       .  A
O430       Cd435   2.461       .  S
C431        O440   1.267       .  A
C431        O436   1.273       .  A
C431       C1200   1.482       .  S
O432        C438   1.276       .  A
O432       Cd435   2.508       .  S
C433        O441   1.265       .  A
C433        C836   1.484       .  S
C434        O439   1.272       .  A
C434        O437   1.267       .  A
C434        C881   1.480       .  S
Cd435       O442   2.363       .  S
Cd435       O441   2.438       .  S
Cd435       O440   2.438       .  S
Cd435       O436   2.462       .  S
Cd435       O439   2.453       .  S
Cd435       O437   2.439       .  S
C438        O442   1.264       .  A
C438        C850   1.483       .  S
O443        C446   1.271       .  A
O443       Cd448   2.451       .  S
C444        O453   1.263       .  A
C444        O449   1.270       .  A
C444        C920   1.484       .  S
O445        C451   1.269       .  A
O445       Cd448   2.486       .  S
C446        O454   1.268       .  A
C446       C1287   1.488       .  S
C447        O452   1.263       .  A
C447        O450   1.273       .  A
C447        C808   1.477       .  S
Cd448       O455   2.438       .  S
Cd448       O454   2.468       .  S
Cd448       O453   2.407       .  S
Cd448       O449   2.499       .  S
Cd448       O452   2.397       .  S
Cd448       O450   2.491       .  S
C451        O455   1.266       .  A
C451        C822   1.481       .  S
O456        C459   1.269       .  A
O456       Cd461   2.466       .  S
C457        O466   1.265       .  A
C457        O462   1.268       .  A
C457       C1648   1.470       .  S
O458        C464   1.263       .  A
O458       Cd461   2.449       .  S
C459        O467   1.264       .  A
C459       C1007   1.476       .  S
C460        O465   1.268       .  A
C460        O463   1.261       .  A
C460        C825   1.482       .  S
Cd461       O468   2.493       .  S
Cd461       O467   2.419       .  S
Cd461       O466   2.438       .  S
Cd461       O462   2.464       .  S
Cd461       O465   2.482       .  S
Cd461       O463   2.432       .  S
C464        O468   1.268       .  A
C464       C1091   1.479       .  S
O469        C472   1.270       .  A
O469       Cd474   2.455       .  S
C470        O479   1.268       .  A
C470        O475   1.269       .  A
C470       C1133   1.479       .  S
O471        C477   1.275       .  A
O471       Cd474   2.496       .  S
C472        O480   1.266       .  A
C472        C769   1.481       .  S
C473        O478   1.273       .  A
C473        O476   1.264       .  A
C473        C794   1.475       .  S
Cd474       O481   2.378       .  S
Cd474       O480   2.421       .  S
Cd474       O479   2.437       .  S
Cd474       O475   2.434       .  S
Cd474       O478   2.497       .  S
Cd474       O476   2.385       .  S
C477        O481   1.263       .  A
C477        C780   1.478       .  S
O482        C485   1.269       .  A
O482       Cd487   2.471       .  S
C483        O492   1.267       .  A
C483        O488   1.270       .  A
C483       C1357   1.487       .  S
O484        C490   1.270       .  A
O484       Cd487   2.483       .  S
C485        O493   1.263       .  A
C485        C811   1.485       .  S
C486        O491   1.268       .  A
C486        O489   1.264       .  A
C486        C797   1.485       .  S
Cd487       O494   2.427       .  S
Cd487       O493   2.461       .  S
Cd487       O492   2.483       .  S
Cd487       O488   2.455       .  S
Cd487       O491   2.475       .  S
Cd487       O489   2.458       .  S
C490        O494   1.262       .  A
C490        C906   1.476       .  S
O495        C498   1.272       .  A
O495       Cd500   2.458       .  S
C496        O505   1.266       .  A
C496        O501   1.270       .  A
C496       C1245   1.478       .  S
O497        C503   1.273       .  A
O497       Cd500   2.482       .  S
C498        O506   1.264       .  A
C498        C783   1.479       .  S
C499        O504   1.271       .  A
C499        O502   1.265       .  A
C499        C752   1.476       .  S
Cd500       O507   2.402       .  S
Cd500       O506   2.425       .  S
Cd500       O505   2.444       .  S
Cd500       O501   2.448       .  S
Cd500       O504   2.454       .  S
Cd500       O502   2.420       .  S
C503        O507   1.263       .  A
C503        C738   1.478       .  S
O508        C511   1.268       .  A
O508       Cd513   2.459       .  S
C509        O518   1.266       .  A
C509        O514   1.268       .  A
C509       C1816   1.474       .  S
O510        C516   1.272       .  A
O510       Cd513   2.509       .  S
C511        O519   1.266       .  A
C511        C864   1.483       .  S
C512        O517   1.270       .  A
C512        O515   1.262       .  A
C512        C755   1.472       .  S
Cd513       O520   2.400       .  S
Cd513       O519   2.435       .  S
Cd513       O518   2.443       .  S
Cd513       O514   2.447       .  S
Cd513       O517   2.477       .  S
Cd513       O515   2.415       .  S
C516        O520   1.262       .  A
C516       C1021   1.477       .  S
O521        C524   1.270       .  A
O521       Cd526   2.474       .  S
C522        O531   1.265       .  A
C522        O527   1.271       .  A
C522       C1175   1.483       .  S
O523        C529   1.273       .  A
O523       Cd526   2.497       .  S
C524        O532   1.267       .  A
C524        C696   1.486       .  S
C525        O530   1.269       .  A
C525        O528   1.264       .  A
C525        C724   1.477       .  S
Cd526       O533   2.395       .  S
Cd526       O532   2.438       .  S
Cd526       O531   2.445       .  S
Cd526       O527   2.458       .  S
Cd526       O530   2.484       .  S
Cd526       O528   2.441       .  S
C529        O533   1.261       .  A
C529        C710   1.481       .  S
O534        C537   1.270       .  A
O534       Cd539   2.440       .  S
C535        O544   1.268       .  A
C535        O540   1.270       .  A
C535       C1312   1.482       .  S
O536        C542   1.276       .  A
O536       Cd539   2.511       .  S
C537        O545   1.266       .  A
C537        C895   1.484       .  S
C538        O543   1.273       .  A
C538        O541   1.264       .  A
C538        C727   1.481       .  S
Cd539       O546   2.372       .  S
Cd539       O545   2.456       .  S
Cd539       O544   2.451       .  S
Cd539       O540   2.451       .  S
Cd539       O543   2.502       .  S
Cd539       O541   2.403       .  S
C542        O546   1.263       .  A
C542        C962   1.479       .  S
O547        C550   1.267       .  A
O547       Cd552   2.453       .  S
C548        O557   1.267       .  A
C548        O553   1.269       .  A
C548       C1735   1.482       .  S
O549        C555   1.269       .  A
O549       Cd552   2.502       .  S
C550        O558   1.263       .  A
C550        C741   1.479       .  S
C551        O556   1.267       .  A
C551        O554   1.262       .  A
C551        C682   1.463       .  S
Cd552       O559   2.400       .  S
Cd552       O558   2.454       .  S
Cd552       O557   2.470       .  S
Cd552       O553   2.468       .  S
Cd552       O556   2.473       .  S
Cd552       O554   2.429       .  S
C555        O559   1.261       .  A
C555        C766   1.472       .  S
O560        C563   1.268       .  A
O560       Cd565   2.483       .  S
C561        O570   1.264       .  A
C561        O566   1.269       .  A
C561        C713   1.482       .  S
O562        C568   1.265       .  A
O562       Cd565   2.462       .  S
C563        O571   1.263       .  A
C563       C1497   1.478       .  S
C564        O569   1.264       .  A
C564        O567   1.267       .  A
C564        C671   1.478       .  S
Cd565       O572   2.462       .  S
Cd565       O571   2.452       .  S
Cd565       O570   2.445       .  S
Cd565       O566   2.450       .  S
Cd565       O569   2.443       .  S
Cd565       O567   2.468       .  S
C568        O572   1.262       .  A
C568        C685   1.484       .  S
O573        C576   1.269       .  A
O573       Cd578   2.465       .  S
C574        O583   1.263       .  A
C574        O579   1.269       .  A
C574       C1791   1.470       .  S
O575        C581   1.265       .  A
O575       Cd578   2.455       .  S
C576        O584   1.265       .  A
C576        C853   1.483       .  S
C577        O582   1.267       .  A
C577        O580   1.261       .  A
C577        C654   1.476       .  S
Cd578       O585   2.462       .  S
Cd578       O584   2.442       .  S
Cd578       O583   2.441       .  S
Cd578       O579   2.476       .  S
Cd578       O582   2.500       .  S
Cd578       O580   2.441       .  S
C581        O585   1.265       .  A
C581        C640   1.485       .  S
O586        C589   1.271       .  A
O586       Cd591   2.508       .  S
C587        O596   1.266       .  A
C587        O592   1.272       .  A
C587       C1595   1.483       .  S
O588        C594   1.264       .  A
O588       Cd591   2.399       .  S
C589        O597   1.265       .  A
C589        C951   1.485       .  S
C590        O595   1.270       .  A
C590        O593   1.266       .  A
C590        C657   1.484       .  S
Cd591       O598   2.513       .  S
Cd591       O597   2.393       .  S
Cd591       O596   2.454       .  S
Cd591       O592   2.453       .  S
Cd591       O595   2.470       .  S
Cd591       O593   2.448       .  S
C594        O598   1.273       .  A
C594       C1063   1.479       .  S
O599        C602   1.270       .  A
O599       Cd604   2.488       .  S
C600        O609   1.267       .  A
C600        O605   1.270       .  A
C600       C1144   1.479       .  S
O601        C607   1.272       .  A
O601       Cd604   2.507       .  S
C602        O610   1.264       .  A
C602        C668   1.479       .  S
C603        O608   1.270       .  A
C603        O606   1.265       .  A
C603        C626   1.476       .  S
Cd604       O611   2.388       .  S
Cd604       O610   2.408       .  S
Cd604       O609   2.438       .  S
Cd604       O605   2.472       .  S
Cd604       O608   2.476       .  S
Cd604       O606   2.415       .  S
C607        O611   1.264       .  A
C607        C699   1.476       .  S
O612        C615   1.268       .  A
O612       Cd617   2.472       .  S
C613        O622   1.268       .  A
C613        O618   1.268       .  A
C613       C1917   1.486       .  S
O614        C620   1.273       .  A
O614       Cd617   2.506       .  S
C615        O623   1.266       .  A
C615        C643   1.482       .  S
C616        O621   1.271       .  A
C616        O619   1.264       .  A
C616        C629   1.480       .  S
Cd617       O624   2.379       .  S
Cd617       O623   2.445       .  S
Cd617       O622   2.462       .  S
Cd617       O618   2.445       .  S
Cd617       O621   2.505       .  S
Cd617       O619   2.401       .  S
C620        O624   1.262       .  A
C620        C839   1.475       .  S
C625        C626   1.407       .  A
C625        C630   1.401       .  A
C625        H632   1.084       .  S
C626        C627   1.407       .  A
C627        C628   1.398       .  A
C627        N634   1.429       .  S
C628        C629   1.407       .  A
C628        H633   1.084       .  S
C629        C630   1.409       .  A
C630        N631   1.428       .  S
N631        O635   1.262       .  A
N631        O636   1.262       .  A
N634        O638   1.262       .  A
N634        O637   1.262       .  A
C639        C640   1.406       .  A
C639        C644   1.401       .  A
C639        H646   1.082       .  S
C640        C641   1.413       .  A
C641        C642   1.400       .  A
C641        N648   1.429       .  S
C642        C643   1.405       .  A
C642        H647   1.084       .  S
C643        C644   1.411       .  A
C644        N645   1.429       .  S
N645        O649   1.262       .  A
N645        O650   1.262       .  A
N648        O652   1.262       .  A
N648        O651   1.262       .  A
C653        C654   1.403       .  A
C653        C658   1.399       .  A
C653        H660   1.084       .  S
C654        C655   1.407       .  A
C655        C656   1.404       .  A
C655        N662   1.430       .  S
C656        C657   1.410       .  A
C656        H661   1.084       .  S
C657        C658   1.410       .  A
C658        N659   1.428       .  S
N659        O663   1.262       .  A
N659        O664   1.262       .  A
N662        O666   1.262       .  A
N662        O665   1.262       .  A
C667        C668   1.404       .  A
C667        C672   1.396       .  A
C667        H674   1.084       .  S
C668        C669   1.411       .  A
C669        C670   1.402       .  A
C669        N676   1.429       .  S
C670        C671   1.406       .  A
C670        H675   1.083       .  S
C671        C672   1.410       .  A
C672        N673   1.429       .  S
N673        O677   1.262       .  A
N673        O678   1.262       .  A
N676        O680   1.262       .  A
N676        O679   1.262       .  A
C681        C682   1.399       .  A
C681        C686   1.399       .  A
C681        H688   1.084       .  S
C682        C683   1.402       .  A
C683        C684   1.400       .  A
C683        N690   1.429       .  S
C684        C685   1.410       .  A
C684        H689   1.083       .  S
C685        C686   1.415       .  A
C686        N687   1.429       .  S
N687        O691   1.262       .  A
N687        O692   1.262       .  A
N690        O694   1.262       .  A
N690        O693   1.262       .  A
C695        C696   1.409       .  A
C695        C700   1.403       .  A
C695        H702   1.083       .  S
C696        C697   1.413       .  A
C697        C698   1.398       .  A
C697        N704   1.429       .  S
C698        C699   1.403       .  A
C698        H703   1.084       .  S
C699        C700   1.407       .  A
C700        N701   1.429       .  S
N701        O705   1.262       .  A
N701        O706   1.262       .  A
N704        O708   1.262       .  A
N704        O707   1.262       .  A
C709        C710   1.403       .  A
C709        C714   1.402       .  A
C709        H716   1.084       .  S
C710        C711   1.417       .  A
C711        C712   1.396       .  A
C711        N718   1.430       .  S
C712        C713   1.401       .  A
C712        H717   1.084       .  S
C713        C714   1.416       .  A
C714        N715   1.429       .  S
N715        O719   1.262       .  A
N715        O720   1.262       .  A
N718        O722   1.261       .  A
N718        O721   1.262       .  A
C723        C724   1.406       .  A
C723        C728   1.404       .  A
C723        H730   1.084       .  S
C724        C725   1.407       .  A
C725        C726   1.399       .  A
C725        N732   1.429       .  S
C726        C727   1.407       .  A
C726        H731   1.084       .  S
C727        C728   1.409       .  A
C728        N729   1.428       .  S
N729        O733   1.262       .  A
N729        O734   1.262       .  A
N732        O736   1.262       .  A
N732        O735   1.262       .  A
C737        C738   1.403       .  A
C737        C742   1.401       .  A
C737        H744   1.084       .  S
C738        C739   1.415       .  A
C739        C740   1.396       .  A
C739        N746   1.430       .  S
C740        C741   1.401       .  A
C740        H745   1.084       .  S
C741        C742   1.414       .  A
C742        N743   1.429       .  S
N743        O747   1.262       .  A
N743        O748   1.262       .  A
N746        O750   1.262       .  A
N746        O749   1.262       .  A
C751        C752   1.401       .  A
C751        C756   1.398       .  A
C751        H758   1.084       .  S
C752        C753   1.415       .  A
C753        C754   1.399       .  A
C753        N760   1.429       .  S
C754        C755   1.399       .  A
C754        H759   1.084       .  S
C755        C756   1.412       .  A
C756        N757   1.429       .  S
N757        O761   1.262       .  A
N757        O762   1.262       .  A
N760        O764   1.262       .  A
N760        O763   1.262       .  A
C765        C766   1.402       .  A
C765        C770   1.396       .  A
C765        H772   1.079       .  S
C766        C767   1.407       .  A
C767        C768   1.400       .  A
C767        N774   1.429       .  S
C768        C769   1.409       .  A
C768        H773   1.083       .  S
C769        C770   1.411       .  A
C770        N771   1.430       .  S
N771        O775   1.262       .  A
N771        O776   1.262       .  A
N774        O778   1.262       .  A
N774        O777   1.262       .  A
C779        C780   1.401       .  A
C779        C784   1.402       .  A
C779        H786   1.084       .  S
C780        C781   1.415       .  A
C781        C782   1.396       .  A
C781        N788   1.430       .  S
C782        C783   1.400       .  A
C782        H787   1.084       .  S
C783        C784   1.416       .  A
C784        N785   1.429       .  S
N785        O789   1.262       .  A
N785        O790   1.262       .  A
N788        O792   1.261       .  A
N788        O791   1.262       .  A
C793        C794   1.403       .  A
C793        C798   1.396       .  A
C793        H800   1.084       .  S
C794        C795   1.407       .  A
C795        C796   1.405       .  A
C795        N802   1.429       .  S
C796        C797   1.411       .  A
C796        H801   1.084       .  S
C797        C798   1.410       .  A
C798        N799   1.428       .  S
N799        O803   1.262       .  A
N799        O804   1.262       .  A
N802        O806   1.262       .  A
N802        O805   1.262       .  A
C807        C808   1.401       .  A
C807        C812   1.403       .  A
C807        H814   1.084       .  S
C808        C809   1.414       .  A
C809        C810   1.398       .  A
C809        N816   1.431       .  S
C810        C811   1.403       .  A
C810        H815   1.084       .  S
C811        C812   1.417       .  A
C812        N813   1.429       .  S
N813        O817   1.262       .  A
N813        O818   1.262       .  A
N816        O820   1.261       .  A
N816        O819   1.262       .  A
C821        C822   1.403       .  A
C821        C826   1.399       .  A
C821        H828   1.084       .  S
C822        C823   1.413       .  A
C823        C824   1.402       .  A
C823        N830   1.429       .  S
C824        C825   1.405       .  A
C824        H829   1.084       .  S
C825        C826   1.414       .  A
C826        N827   1.429       .  S
N827        O831   1.262       .  A
N827        O832   1.262       .  A
N830        O834   1.262       .  A
N830        O833   1.262       .  A
C835        C836   1.403       .  A
C835        C840   1.397       .  A
C835        H842   1.084       .  S
C836        C837   1.418       .  A
C837        C838   1.403       .  A
C837        N844   1.429       .  S
C838        C839   1.400       .  A
C838        H843   1.084       .  S
C839        C840   1.413       .  A
C840        N841   1.431       .  S
N841        O845   1.262       .  A
N841        O846   1.262       .  A
N844        O848   1.262       .  A
N844        O847   1.262       .  A
C849        C850   1.407       .  A
C849        C854   1.395       .  A
C849        H856   1.085       .  S
C850        C851   1.409       .  A
C851        C852   1.404       .  A
C851        N858   1.428       .  S
C852        C853   1.409       .  A
C852        H857   1.084       .  S
C853        C854   1.410       .  A
C854        N855   1.429       .  S
N855        O859   1.262       .  A
N855        O860   1.262       .  A
N858        O862   1.262       .  A
N858        O861   1.262       .  A
C863        C864   1.409       .  A
C863        C868   1.402       .  A
C863        H870   1.083       .  S
C864        C865   1.412       .  A
C865        C866   1.396       .  A
C865        N872   1.429       .  S
C866        C867   1.404       .  A
C866        H871   1.084       .  S
C867        C868   1.407       .  A
C868        N869   1.428       .  S
N869        O873   1.262       .  A
N869        O874   1.262       .  A
N872        O876   1.262       .  A
N872        O875   1.262       .  A
C877        C878   1.404       .  A
C877        C882   1.399       .  A
C877        H884   1.084       .  S
C878        C879   1.410       .  A
C879        C880   1.400       .  A
C879        N886   1.428       .  S
C880        C881   1.404       .  A
C880        H885   1.084       .  S
C881        C882   1.413       .  A
C882        N883   1.429       .  S
N883        O887   1.262       .  A
N883        O888   1.262       .  A
N886        O890   1.262       .  A
N886        O889   1.262       .  A
C891        C892   1.402       .  A
C891        C896   1.400       .  A
C891        H898   1.084       .  S
C892        C893   1.411       .  A
C893        C894   1.397       .  A
C893        N900   1.429       .  S
C894        C895   1.404       .  A
C894        H899   1.084       .  S
C895        C896   1.416       .  A
C896        N897   1.429       .  S
N897        O901   1.262       .  A
N897        O902   1.262       .  A
N900        O904   1.262       .  A
N900        O903   1.262       .  A
C905        C906   1.401       .  A
C905        C910   1.401       .  A
C905        H912   1.084       .  S
C906        C907   1.411       .  A
C907        C908   1.397       .  A
C907        N914   1.427       .  S
C908        C909   1.402       .  A
C908        H913   1.084       .  S
C909        C910   1.416       .  A
C910        N911   1.428       .  S
N911        O915   1.262       .  A
N911        O916   1.262       .  A
N914        O918   1.262       .  A
N914        O917   1.262       .  A
C919        C920   1.409       .  A
C919        C924   1.399       .  A
C919        H926   1.084       .  S
C920        C921   1.411       .  A
C921        C922   1.399       .  A
C921        N928   1.429       .  S
C922        C923   1.406       .  A
C922        H927   1.084       .  S
C923        C924   1.407       .  A
C924        N925   1.429       .  S
N925        O929   1.261       .  A
N925        O930   1.261       .  A
N928        O932   1.262       .  A
N928        O931   1.262       .  A
C933        C934   1.401       .  A
C933        C938   1.399       .  A
C933        H940   1.084       .  S
C934        C935   1.404       .  A
C935        C936   1.397       .  A
C935        N942   1.429       .  S
C936        C937   1.408       .  A
C936        H941   1.083       .  S
C937        C938   1.412       .  A
C938        N939   1.429       .  S
N939        O943   1.262       .  A
N939        O944   1.262       .  A
N942        O946   1.262       .  A
N942        O945   1.262       .  A
C947        C948   1.406       .  A
C947        C952   1.404       .  A
C947        H954   1.084       .  S
C948        C949   1.408       .  A
C949        C950   1.394       .  A
C949        N956   1.429       .  S
C950        C951   1.406       .  A
C950        H955   1.084       .  S
C951        C952   1.413       .  A
C952        N953   1.429       .  S
N953        O957   1.262       .  A
N953        O958   1.262       .  A
N956        O960   1.262       .  A
N956        O959   1.262       .  A
C961        C962   1.407       .  A
C961        C966   1.398       .  A
C961        H968   1.084       .  S
C962        C963   1.406       .  A
C963        C964   1.402       .  A
C963        N970   1.428       .  S
C964        C965   1.409       .  A
C964        H969   1.084       .  S
C965        C966   1.410       .  A
C966        N967   1.430       .  S
N967        O971   1.262       .  A
N967        O972   1.262       .  A
N970        O974   1.262       .  A
N970        O973   1.262       .  A
C975        C976   1.401       .  A
C975        C980   1.401       .  A
C975        H982   1.084       .  S
C976        C977   1.414       .  A
C977        C978   1.394       .  A
C977        N984   1.430       .  S
C978        C979   1.402       .  A
C978        H983   1.084       .  S
C979        C980   1.417       .  A
C980        N981   1.429       .  S
N981        O985   1.262       .  A
N981        O986   1.262       .  A
N984        O988   1.261       .  A
N984        O987   1.262       .  A
C989        C990   1.404       .  A
C989        C994   1.401       .  A
C989        H996   1.084       .  S
C990        C991   1.412       .  A
C991        C992   1.399       .  A
C991        N998   1.429       .  S
C992        C993   1.404       .  A
C992        H997   1.084       .  S
C993        C994   1.412       .  A
C994        N995   1.429       .  S
N995        O999   1.262       .  A
N995       O1000   1.262       .  A
N998       O1002   1.262       .  A
N998       O1001   1.262       .  A
C1003      C1004   1.403       .  A
C1003      C1008   1.395       .  A
C1003      H1010   1.082       .  S
C1004      C1005   1.407       .  A
C1005      C1006   1.399       .  A
C1005      N1012   1.429       .  S
C1006      C1007   1.407       .  A
C1006      H1011   1.084       .  S
C1007      C1008   1.408       .  A
C1008      N1009   1.429       .  S
N1009      O1013   1.262       .  A
N1009      O1014   1.262       .  A
N1012      O1016   1.261       .  A
N1012      O1015   1.262       .  A
C1017      C1018   1.403       .  A
C1017      C1022   1.397       .  A
C1017      H1024   1.084       .  S
C1018      C1019   1.417       .  A
C1019      C1020   1.403       .  A
C1019      N1026   1.429       .  S
C1020      C1021   1.401       .  A
C1020      H1025   1.084       .  S
C1021      C1022   1.411       .  A
C1022      N1023   1.429       .  S
N1023      O1027   1.262       .  A
N1023      O1028   1.262       .  A
N1026      O1030   1.262       .  A
N1026      O1029   1.262       .  A
C1031      C1032   1.402       .  A
C1031      C1036   1.399       .  A
C1031      H1038   1.084       .  S
C1032      C1033   1.415       .  A
C1033      C1034   1.401       .  A
C1033      N1040   1.428       .  S
C1034      C1035   1.400       .  A
C1034      H1039   1.084       .  S
C1035      C1036   1.416       .  A
C1036      N1037   1.431       .  S
N1037      O1041   1.262       .  A
N1037      O1042   1.262       .  A
N1040      O1044   1.262       .  A
N1040      O1043   1.262       .  A
C1045      C1046   1.405       .  A
C1045      C1050   1.402       .  A
C1045      H1052   1.084       .  S
C1046      C1047   1.412       .  A
C1047      C1048   1.399       .  A
C1047      N1054   1.429       .  S
C1048      C1049   1.403       .  A
C1048      H1053   1.084       .  S
C1049      C1050   1.411       .  A
C1050      N1051   1.429       .  S
N1051      O1055   1.262       .  A
N1051      O1056   1.262       .  A
N1054      O1058   1.262       .  A
N1054      O1057   1.262       .  A
C1059      C1060   1.410       .  A
C1059      C1064   1.403       .  A
C1059      H1066   1.083       .  S
C1060      C1061   1.411       .  A
C1061      C1062   1.398       .  A
C1061      N1068   1.429       .  S
C1062      C1063   1.404       .  A
C1062      H1067   1.083       .  S
C1063      C1064   1.408       .  A
C1064      N1065   1.428       .  S
N1065      O1069   1.262       .  A
N1065      O1070   1.262       .  A
N1068      O1072   1.262       .  A
N1068      O1071   1.262       .  A
C1073      C1074   1.407       .  A
C1073      C1078   1.400       .  A
C1073      H1080   1.084       .  S
C1074      C1075   1.413       .  A
C1075      C1076   1.398       .  A
C1075      N1082   1.430       .  S
C1076      C1077   1.404       .  A
C1076      H1081   1.084       .  S
C1077      C1078   1.408       .  A
C1078      N1079   1.429       .  S
N1079      O1083   1.262       .  A
N1079      O1084   1.262       .  A
N1082      O1086   1.262       .  A
N1082      O1085   1.262       .  A
C1087      C1088   1.406       .  A
C1087      C1092   1.399       .  A
C1087      H1094   1.084       .  S
C1088      C1089   1.413       .  A
C1089      C1090   1.403       .  A
C1089      N1096   1.429       .  S
C1090      C1091   1.405       .  A
C1090      H1095   1.084       .  S
C1091      C1092   1.409       .  A
C1092      N1093   1.429       .  S
N1093      O1097   1.262       .  A
N1093      O1098   1.262       .  A
N1096      O1100   1.262       .  A
N1096      O1099   1.262       .  A
C1101      C1102   1.400       .  A
C1101      C1106   1.403       .  A
C1101      H1108   1.084       .  S
C1102      C1103   1.413       .  A
C1103      C1104   1.400       .  A
C1103      N1110   1.428       .  S
C1104      C1105   1.402       .  A
C1104      H1109   1.084       .  S
C1105      C1106   1.418       .  A
C1106      N1107   1.428       .  S
N1107      O1111   1.261       .  A
N1107      O1112   1.262       .  A
N1110      O1114   1.262       .  A
N1110      O1113   1.262       .  A
C1115      C1116   1.406       .  A
C1115      C1120   1.407       .  A
C1115      H1122   1.084       .  S
C1116      C1117   1.419       .  A
C1117      C1118   1.400       .  A
C1117      N1124   1.429       .  S
C1118      C1119   1.398       .  A
C1118      H1123   1.084       .  S
C1119      C1120   1.413       .  A
C1120      N1121   1.430       .  S
N1121      O1125   1.262       .  A
N1121      O1126   1.262       .  A
N1124      O1128   1.262       .  A
N1124      O1127   1.262       .  A
C1129      C1130   1.404       .  A
C1129      C1134   1.399       .  A
C1129      H1136   1.084       .  S
C1130      C1131   1.408       .  A
C1131      C1132   1.401       .  A
C1131      N1138   1.429       .  S
C1132      C1133   1.407       .  A
C1132      H1137   1.084       .  S
C1133      C1134   1.410       .  A
C1134      N1135   1.429       .  S
N1135      O1139   1.262       .  A
N1135      O1140   1.262       .  A
N1138      O1142   1.262       .  A
N1138      O1141   1.262       .  A
C1143      C1144   1.406       .  A
C1143      C1148   1.401       .  A
C1143      H1150   1.084       .  S
C1144      C1145   1.408       .  A
C1145      C1146   1.401       .  A
C1145      N1152   1.428       .  S
C1146      C1147   1.406       .  A
C1146      H1151   1.083       .  S
C1147      C1148   1.410       .  A
C1148      N1149   1.429       .  S
N1149      O1153   1.262       .  A
N1149      O1154   1.262       .  A
N1152      O1156   1.262       .  A
N1152      O1155   1.262       .  A
C1157      C1158   1.405       .  A
C1157      C1162   1.402       .  A
C1157      H1164   1.084   1_554  S
C1158      C1159   1.409       .  A
C1159      C1160   1.395       .  A
C1159      N1166   1.429       .  S
C1160      C1161   1.403       .  A
C1160      H1165   1.084       .  S
C1161      C1162   1.412       .  A
C1162      N1163   1.429       .  S
N1163      O1167   1.262       .  A
N1163      O1168   1.262       .  A
N1166      O1170   1.262   1_554  A
N1166      O1169   1.262       .  A
C1171      C1172   1.402       .  A
C1171      C1176   1.402       .  A
C1171      H1178   1.084       .  S
C1172      C1173   1.415       .  A
C1173      C1174   1.400       .  A
C1173      N1180   1.429       .  S
C1174      C1175   1.402       .  A
C1174      H1179   1.084       .  S
C1175      C1176   1.416       .  A
C1176      N1177   1.430       .  S
N1177      O1181   1.262       .  A
N1177      O1182   1.261       .  A
N1180      O1184   1.261       .  A
N1180      O1183   1.262       .  A
C1185      C1186   1.401       .  A
C1185      C1190   1.396       .  A
C1185      H1192   1.084       .  S
C1186      C1187   1.415       .  A
C1187      C1188   1.402       .  A
C1187      N1194   1.429       .  S
C1188      C1189   1.404       .  A
C1188      H1193   1.084       .  S
C1189      C1190   1.418       .  A
C1190      N1191   1.432       .  S
N1191      O1195   1.262       .  A
N1191      O1196   1.262       .  A
N1194      O1198   1.262       .  A
N1194      O1197   1.262       .  A
C1199      C1200   1.402       .  A
C1199      C1204   1.402       .  A
C1199      H1206   1.084       .  S
C1200      C1201   1.415       .  A
C1201      C1202   1.401       .  A
C1201      N1208   1.429       .  S
C1202      C1203   1.402       .  A
C1202      H1207   1.084       .  S
C1203      C1204   1.416       .  A
C1204      N1205   1.429       .  S
N1205      O1209   1.262       .  A
N1205      O1210   1.262       .  A
N1208      O1212   1.262       .  A
N1208      O1211   1.262       .  A
C1213      C1214   1.402       .  A
C1213      C1218   1.401   1_455  A
C1213      H1220   1.084       .  S
C1214      C1215   1.413       .  A
C1215      C1216   1.405   1_455  A
C1215      N1222   1.430       .  S
C1216      C1217   1.407       .  A
C1216      H1221   1.084       .  S
C1217      C1218   1.413       .  A
C1218      N1219   1.428       .  S
N1219      O1223   1.262       .  A
N1219      O1224   1.262       .  A
N1222      O1226   1.262       .  A
N1222      O1225   1.262       .  A
C1227      C1228   1.407       .  A
C1227      C1232   1.401       .  A
C1227      H1234   1.084       .  S
C1228      C1229   1.410       .  A
C1229      C1230   1.398       .  A
C1229      N1236   1.429       .  S
C1230      C1231   1.405       .  A
C1230      H1235   1.084       .  S
C1231      C1232   1.409       .  A
C1232      N1233   1.429       .  S
N1233      O1237   1.262       .  A
N1233      O1238   1.262       .  A
N1236      O1240   1.262       .  A
N1236      O1239   1.262       .  A
C1241      C1242   1.402       .  A
C1241      C1246   1.398       .  A
C1241      H1248   1.084       .  S
C1242      C1243   1.414       .  A
C1243      C1244   1.401       .  A
C1243      N1250   1.430       .  S
C1244      C1245   1.402       .  A
C1244      H1249   1.084       .  S
C1245      C1246   1.414       .  A
C1246      N1247   1.430       .  S
N1247      O1251   1.262       .  A
N1247      O1252   1.261       .  A
N1250      O1254   1.261       .  A
N1250      O1253   1.262       .  A
C1255      C1256   1.401       .  A
C1255      C1260   1.400       .  A
C1255      H1262   1.084       .  S
C1256      C1257   1.416       .  A
C1257      C1258   1.398       .  A
C1257      N1264   1.431       .  S
C1258      C1259   1.402       .  A
C1258      H1263   1.084       .  S
C1259      C1260   1.415       .  A
C1260      N1261   1.429       .  S
N1261      O1265   1.262       .  A
N1261      O1266   1.262       .  A
N1264      O1268   1.262       .  A
N1264      O1267   1.262       .  A
C1269      C1270   1.404       .  A
C1269      C1274   1.403   1_565  A
C1269      H1276   1.084       .  S
C1270      C1271   1.410       .  A
C1271      C1272   1.394   1_565  A
C1271      N1278   1.429       .  S
C1272      C1273   1.403       .  A
C1272      H1277   1.084       .  S
C1273      C1274   1.414       .  A
C1274      N1275   1.429       .  S
N1275      O1279   1.262       .  A
N1275      O1280   1.262       .  A
N1278      O1282   1.262       .  A
N1278      O1281   1.262       .  A
C1283      C1284   1.404       .  A
C1283      C1288   1.405       .  A
C1283      H1290   1.084       .  S
C1284      C1285   1.415       .  A
C1285      C1286   1.400       .  A
C1285      N1292   1.429       .  S
C1286      C1287   1.402       .  A
C1286      H1291   1.084       .  S
C1287      C1288   1.416       .  A
C1288      N1289   1.429       .  S
N1289      O1293   1.262       .  A
N1289      O1294   1.261       .  A
N1292      O1296   1.261       .  A
N1292      O1295   1.262       .  A
C1297      C1298   1.403       .  A
C1297      C1302   1.392       .  A
C1297      H1304   1.084       .  S
C1298      C1299   1.407       .  A
C1299      C1300   1.402       .  A
C1299      N1306   1.429       .  S
C1300      C1301   1.409       .  A
C1300      H1305   1.084       .  S
C1301      C1302   1.409       .  A
C1302      N1303   1.429       .  S
N1303      O1307   1.262       .  A
N1303      O1308   1.262       .  A
N1306      O1310   1.262       .  A
N1306      O1309   1.262       .  A
C1311      C1312   1.403       .  A
C1311      C1316   1.402       .  A
C1311      H1318   1.084       .  S
C1312      C1313   1.415       .  A
C1313      C1314   1.401       .  A
C1313      N1320   1.429       .  S
C1314      C1315   1.401       .  A
C1314      H1319   1.084       .  S
C1315      C1316   1.413       .  A
C1316      N1317   1.429       .  S
N1317      O1321   1.262       .  A
N1317      O1322   1.262       .  A
N1320      O1324   1.261       .  A
N1320      O1323   1.262       .  A
C1325      C1326   1.402       .  A
C1325      C1330   1.398       .  A
C1325      H1332   1.084       .  S
C1326      C1327   1.411       .  A
C1327      C1328   1.400       .  A
C1327      N1334   1.429       .  S
C1328      C1329   1.405       .  A
C1328      H1333   1.084       .  S
C1329      C1330   1.413       .  A
C1330      N1331   1.429       .  S
N1331      O1335   1.262       .  A
N1331      O1336   1.262       .  A
N1334      O1338   1.262       .  A
N1334      O1337   1.262       .  A
C1339      C1340   1.405       .  A
C1339      C1344   1.407       .  A
C1339      H1346   1.083       .  S
C1340      C1341   1.415       .  A
C1341      C1342   1.400       .  A
C1341      N1348   1.426       .  S
C1342      C1343   1.400       .  A
C1342      H1347   1.084       .  S
C1343      C1344   1.414       .  A
C1344      N1345   1.428       .  S
N1345      O1349   1.262       .  A
N1345      O1350   1.260       .  A
N1348      O1352   1.262       .  A
N1348      O1351   1.262       .  A
C1353      C1354   1.402       .  A
C1353      C1358   1.404       .  A
C1353      H1360   1.084       .  S
C1354      C1355   1.412       .  A
C1355      C1356   1.401       .  A
C1355      N1362   1.426       .  S
C1356      C1357   1.402       .  A
C1356      H1361   1.084       .  S
C1357      C1358   1.415       .  A
C1358      N1359   1.428       .  S
N1359      O1363   1.262       .  A
N1359      O1364   1.261       .  A
N1362      O1366   1.259       .  A
N1362      O1365   1.261       .  A
C1367      C1368   1.404       .  A
C1367      C1372   1.397       .  A
C1367      H1374   1.084       .  S
C1368      C1369   1.417       .  A
C1369      C1370   1.398       .  A
C1369      N1376   1.428       .  S
C1370      C1371   1.399       .  A
C1370      H1375   1.084       .  S
C1371      C1372   1.411       .  A
C1372      N1373   1.430       .  S
N1373      O1377   1.262       .  A
N1373      O1378   1.262       .  A
N1376      O1380   1.262       .  A
N1376      O1379   1.262       .  A
C1381      C1382   1.405       .  A
C1381      C1386   1.396       .  A
C1381      H1388   1.054       .  S
C1382      C1383   1.406       .  A
C1383      C1384   1.406       .  A
C1383      N1390   1.428       .  S
C1384      C1385   1.411       .  A
C1384      H1389   1.080       .  S
C1385      C1386   1.406       .  A
C1386      N1387   1.430       .  S
N1387      O1391   1.262       .  A
N1387      O1392   1.262       .  A
N1390      O1394   1.261       .  A
N1390      O1393   1.261       .  A
C1395      C1396   1.404       .  A
C1395      C1400   1.403       .  A
C1395      H1402   1.084       .  S
C1396      C1397   1.411       .  A
C1397      C1398   1.406       .  A
C1397      N1404   1.429       .  S
C1398      C1399   1.408       .  A
C1398      H1403   1.084       .  S
C1399      C1400   1.415       .  A
C1400      N1401   1.429       .  S
N1401      O1405   1.262       .  A
N1401      O1406   1.262   1_655  A
N1404      O1408   1.262       .  A
N1404      O1407   1.262       .  A
C1409      C1410   1.405       .  A
C1409      C1414   1.399       .  A
C1409      H1416   1.084       .  S
C1410      C1411   1.413       .  A
C1411      C1412   1.402       .  A
C1411      N1418   1.429       .  S
C1412      C1413   1.406       .  A
C1412      H1417   1.084       .  S
C1413      C1414   1.413       .  A
C1414      N1415   1.429       .  S
N1415      O1419   1.262       .  A
N1415      O1420   1.262       .  A
N1418      O1422   1.262       .  A
N1418      O1421   1.262       .  A
C1423      C1424   1.403       .  A
C1423      C1428   1.401       .  A
C1423      H1430   1.084       .  S
C1424      C1425   1.415       .  A
C1425      C1426   1.401       .  A
C1425      N1432   1.429       .  S
C1426      C1427   1.403       .  A
C1426      H1431   1.084       .  S
C1427      C1428   1.415       .  A
C1428      N1429   1.429       .  S
N1429      O1433   1.262       .  A
N1429      O1434   1.261       .  A
N1432      O1436   1.261       .  A
N1432      O1435   1.262       .  A
C1437      C1438   1.402       .  A
C1437      C1442   1.403       .  A
C1437      H1444   1.084       .  S
C1438      C1439   1.415       .  A
C1439      C1440   1.399       .  A
C1439      N1446   1.430       .  S
C1440      C1441   1.403       .  A
C1440      H1445   1.084       .  S
C1441      C1442   1.417       .  A
C1442      N1443   1.429       .  S
N1443      O1447   1.262       .  A
N1443      O1448   1.262       .  A
N1446      O1450   1.261       .  A
N1446      O1449   1.262       .  A
C1451      C1452   1.400       .  A
C1451      C1456   1.402       .  A
C1451      H1458   1.084       .  S
C1452      C1453   1.407       .  A
C1453      C1454   1.398       .  A
C1453      N1460   1.429       .  S
C1454      C1455   1.406       .  A
C1454      H1459   1.083       .  S
C1455      C1456   1.416       .  A
C1456      N1457   1.429       .  S
N1457      O1461   1.262       .  A
N1457      O1462   1.262       .  A
N1460      O1464   1.262       .  A
N1460      O1463   1.262   1_554  A
C1465      C1466   1.401       .  A
C1465      C1470   1.397       .  A
C1465      H1472   1.084       .  S
C1466      C1467   1.417       .  A
C1467      C1468   1.405       .  A
C1467      N1474   1.430       .  S
C1468      C1469   1.404       .  A
C1468      H1473   1.084       .  S
C1469      C1470   1.415       .  A
C1470      N1471   1.429       .  S
N1471      O1475   1.261       .  A
N1471      O1476   1.262       .  A
N1474      O1478   1.261       .  A
N1474      O1477   1.262       .  A
C1479      C1480   1.408       .  A
C1479      C1484   1.401       .  A
C1479      H1486   1.083       .  S
C1480      C1481   1.410       .  A
C1481      C1482   1.395       .  A
C1481      N1488   1.430       .  S
C1482      C1483   1.406       .  A
C1482      H1487   1.084       .  S
C1483      C1484   1.409       .  A
C1484      N1485   1.428       .  S
N1485      O1489   1.262       .  A
N1485      O1490   1.262       .  A
N1488      O1492   1.262       .  A
N1488      O1491   1.262       .  A
C1493      C1494   1.403       .  A
C1493      C1498   1.399       .  A
C1493      H1500   1.084       .  S
C1494      C1495   1.415       .  A
C1495      C1496   1.402       .  A
C1495      N1502   1.429       .  S
C1496      C1497   1.401       .  A
C1496      H1501   1.084       .  S
C1497      C1498   1.412       .  A
C1498      N1499   1.429       .  S
N1499      O1503   1.262       .  A
N1499      O1504   1.262       .  A
N1502      O1506   1.262       .  A
N1502      O1505   1.262       .  A
C1507      C1508   1.403       .  A
C1507      C1512   1.397       .  A
C1507      H1514   1.084       .  S
C1508      C1509   1.413       .  A
C1509      C1510   1.400       .  A
C1509      N1516   1.428       .  S
C1510      C1511   1.404       .  A
C1510      H1515   1.084       .  S
C1511      C1512   1.413       .  A
C1512      N1513   1.429       .  S
N1513      O1517   1.262       .  A
N1513      O1518   1.262       .  A
N1516      O1520   1.262       .  A
N1516      O1519   1.262       .  A
C1521      C1522   1.405       .  A
C1521      C1526   1.397       .  A
C1521      H1528   1.084       .  S
C1522      C1523   1.406       .  A
C1523      C1524   1.403       .  A
C1523      N1530   1.428       .  S
C1524      C1525   1.410       .  A
C1524      H1529   1.084       .  S
C1525      C1526   1.410       .  A
C1526      N1527   1.429       .  S
N1527      O1531   1.262       .  A
N1527      O1532   1.262       .  A
N1530      O1534   1.262       .  A
N1530      O1533   1.262       .  A
C1535      C1536   1.404       .  A
C1535      C1540   1.398       .  A
C1535      H1542   1.084       .  S
C1536      C1537   1.406       .  A
C1537      C1538   1.405       .  A
C1537      N1544   1.429       .  S
C1538      C1539   1.410   1_565  A
C1538      H1543   1.084   1_565  S
C1539      C1540   1.412   1_545  A
C1540      N1541   1.430       .  S
N1541      O1545   1.262       .  A
N1541      O1546   1.262       .  A
N1544      O1548   1.262       .  A
N1544      O1547   1.262       .  A
C1549      C1550   1.402       .  A
C1549      C1554   1.397       .  A
C1549      H1556   1.085       .  S
C1550      C1551   1.405       .  A
C1551      C1552   1.404       .  A
C1551      N1558   1.429       .  S
C1552      C1553   1.410       .  A
C1552      H1557   1.083       .  S
C1553      C1554   1.412       .  A
C1554      N1555   1.429       .  S
N1555      O1559   1.262       .  A
N1555      O1560   1.262       .  A
N1558      O1562   1.262       .  A
N1558      O1561   1.262       .  A
C1563      C1564   1.405       .  A
C1563      C1568   1.397       .  A
C1563      H1570   1.084       .  S
C1564      C1565   1.412       .  A
C1565      C1566   1.404       .  A
C1565      N1572   1.429       .  S
C1566      C1567   1.406       .  A
C1566      H1571   1.083       .  S
C1567      C1568   1.409       .  A
C1568      N1569   1.429       .  S
N1569      O1573   1.262       .  A
N1569      O1574   1.262       .  A
N1572      O1576   1.262       .  A
N1572      O1575   1.262       .  A
C1577      C1578   1.406       .  A
C1577      C1582   1.399       .  A
C1577      H1584   1.084       .  S
C1578      C1579   1.408       .  A
C1579      C1580   1.403       .  A
C1579      N1586   1.428       .  S
C1580      C1581   1.409       .  A
C1580      H1585   1.084       .  S
C1581      C1582   1.412       .  A
C1582      N1583   1.429       .  S
N1583      O1587   1.262       .  A
N1583      O1588   1.262       .  A
N1586      O1590   1.262       .  A
N1586      O1589   1.262       .  A
C1591      C1592   1.401       .  A
C1591      C1596   1.403       .  A
C1591      H1598   1.084       .  S
C1592      C1593   1.413       .  A
C1593      C1594   1.399       .  A
C1593      N1600   1.428       .  S
C1594      C1595   1.401       .  A
C1594      H1599   1.084       .  S
C1595      C1596   1.417       .  A
C1596      N1597   1.429       .  S
N1597      O1601   1.262       .  A
N1597      O1602   1.262       .  A
N1600      O1604   1.262       .  A
N1600      O1603   1.262       .  A
C1605      C1606   1.406       .  A
C1605      C1610   1.402       .  A
C1605      H1612   1.082       .  S
C1606      C1607   1.412       .  A
C1607      C1608   1.399       .  A
C1607      N1614   1.429       .  S
C1608      C1609   1.405       .  A
C1608      H1613   1.084       .  S
C1609      C1610   1.411       .  A
C1610      N1611   1.429       .  S
N1611      O1615   1.262       .  A
N1611      O1616   1.262       .  A
N1614      O1618   1.262       .  A
N1614      O1617   1.262       .  A
C1619      C1620   1.404       .  A
C1619      C1624   1.398       .  A
C1619      H1626   1.084       .  S
C1620      C1621   1.408       .  A
C1621      C1622   1.401   1_655  A
C1621      N1628   1.429       .  S
C1622      C1623   1.407       .  A
C1622      H1627   1.084       .  S
C1623      C1624   1.409   1_455  A
C1624      N1625   1.428       .  S
N1625      O1629   1.262       .  A
N1625      O1630   1.262       .  A
N1628      O1632   1.262       .  A
N1628      O1631   1.262       .  A
C1633      C1634   1.403       .  A
C1633      C1638   1.403       .  A
C1633      H1640   1.084       .  S
C1634      C1635   1.415       .  A
C1635      C1636   1.400       .  A
C1635      N1642   1.429       .  S
C1636      C1637   1.402       .  A
C1636      H1641   1.084       .  S
C1637      C1638   1.415       .  A
C1638      N1639   1.429       .  S
N1639      O1643   1.262       .  A
N1639      O1644   1.262       .  A
N1642      O1646   1.262       .  A
N1642      O1645   1.262       .  A
C1647      C1648   1.403       .  A
C1647      C1652   1.400       .  A
C1647      H1654   1.084       .  S
C1648      C1649   1.406       .  A
C1649      C1650   1.398       .  A
C1649      N1656   1.429       .  S
C1650      C1651   1.408       .  A
C1650      H1655   1.084       .  S
C1651      C1652   1.411       .  A
C1652      N1653   1.429       .  S
N1653      O1657   1.262       .  A
N1653      O1658   1.262       .  A
N1656      O1660   1.262       .  A
N1656      O1659   1.262       .  A
C1661      C1662   1.406       .  A
C1661      C1666   1.398       .  A
C1661      H1668   1.084       .  S
C1662      C1663   1.414       .  A
C1663      C1664   1.404       .  A
C1663      N1670   1.429       .  S
C1664      C1665   1.403       .  A
C1664      H1669   1.084       .  S
C1665      C1666   1.411       .  A
C1666      N1667   1.430       .  S
N1667      O1671   1.262       .  A
N1667      O1672   1.262       .  A
N1670      O1674   1.262       .  A
N1670      O1673   1.260       .  A
C1675      C1676   1.401       .  A
C1675      C1680   1.397       .  A
C1675      H1682   1.084       .  S
C1676      C1677   1.416       .  A
C1677      C1678   1.401       .  A
C1677      N1684   1.429       .  S
C1678      C1679   1.400       .  A
C1678      H1683   1.084       .  S
C1679      C1680   1.414       .  A
C1680      N1681   1.430       .  S
N1681      O1685   1.262       .  A
N1681      O1686   1.261       .  A
N1684      O1688   1.262       .  A
N1684      O1687   1.262       .  A
C1689      C1690   1.405       .  A
C1689      C1694   1.397   1_545  A
C1689      H1696   1.084       .  S
C1690      C1691   1.410       .  A
C1691      C1692   1.400   1_545  A
C1691      N1698   1.429       .  S
C1692      C1693   1.406       .  A
C1692      H1697   1.084       .  S
C1693      C1694   1.408       .  A
C1694      N1695   1.429       .  S
N1695      O1699   1.262       .  A
N1695      O1700   1.262       .  A
N1698      O1702   1.262       .  A
N1698      O1701   1.262       .  A
C1703      C1704   1.400       .  A
C1703      C1708   1.401       .  A
C1703      H1710   1.084       .  S
C1704      C1705   1.410       .  A
C1705      C1706   1.398       .  A
C1705      N1712   1.428       .  S
C1706      C1707   1.403       .  A
C1706      H1711   1.084       .  S
C1707      C1708   1.417       .  A
C1708      N1709   1.429       .  S
N1709      O1713   1.262       .  A
N1709      O1714   1.262       .  A
N1712      O1716   1.262       .  A
N1712      O1715   1.262       .  A
C1717      C1718   1.405       .  A
C1717      C1722   1.396       .  A
C1717      H1724   1.084       .  S
C1718      C1719   1.407       .  A
C1719      C1720   1.398       .  A
C1719      N1726   1.429       .  S
C1720      C1721   1.408       .  A
C1720      H1725   1.083       .  S
C1721      C1722   1.412       .  A
C1722      N1723   1.430       .  S
N1723      O1727   1.262       .  A
N1723      O1728   1.262       .  A
N1726      O1730   1.262       .  A
N1726      O1729   1.262       .  A
C1731      C1732   1.402       .  A
C1731      C1736   1.399       .  A
C1731      H1738   1.084       .  S
C1732      C1733   1.416       .  A
C1733      C1734   1.404       .  A
C1733      N1740   1.429       .  S
C1734      C1735   1.403       .  A
C1734      H1739   1.084       .  S
C1735      C1736   1.412       .  A
C1736      N1737   1.427       .  S
N1737      O1741   1.262       .  A
N1737      O1742   1.261       .  A
N1740      O1744   1.261       .  A
N1740      O1743   1.262       .  A
C1745      C1746   1.402       .  A
C1745      C1750   1.397       .  A
C1745      H1752   1.084       .  S
C1746      C1747   1.415       .  A
C1747      C1748   1.403       .  A
C1747      N1754   1.429       .  S
C1748      C1749   1.402       .  A
C1748      H1753   1.084       .  S
C1749      C1750   1.412       .  A
C1750      N1751   1.429       .  S
N1751      O1755   1.262       .  A
N1751      O1756   1.262       .  A
N1754      O1758   1.262       .  A
N1754      O1757   1.262       .  A
C1759      C1760   1.402       .  A
C1759      C1764   1.402       .  A
C1759      H1766   1.084       .  S
C1760      C1761   1.415       .  A
C1761      C1762   1.397       .  A
C1761      N1768   1.431       .  S
C1762      C1763   1.401       .  A
C1762      H1767   1.084       .  S
C1763      C1764   1.414       .  A
C1764      N1765   1.429       .  S
N1765      O1769   1.262       .  A
N1765      O1770   1.262       .  A
N1768      O1772   1.262       .  A
N1768      O1771   1.262       .  A
C1773      C1774   1.403       .  A
C1773      C1778   1.400   1_655  A
C1773      H1780   1.084       .  S
C1774      C1775   1.412       .  A
C1775      C1776   1.401       .  A
C1775      N1782   1.429       .  S
C1776      C1777   1.405   1_655  A
C1776      H1781   1.084   1_655  S
C1777      C1778   1.413       .  A
C1778      N1779   1.429       .  S
N1779      O1783   1.262       .  A
N1779      O1784   1.262       .  A
N1782      O1786   1.262       .  A
N1782      O1785   1.262       .  A
C1787      C1788   1.403       .  A
C1787      C1792   1.397       .  A
C1787      H1794   1.084       .  S
C1788      C1789   1.418       .  A
C1789      C1790   1.402       .  A
C1789      N1796   1.429       .  S
C1790      C1791   1.399       .  A
C1790      H1795   1.084       .  S
C1791      C1792   1.409       .  A
C1792      N1793   1.428       .  S
N1793      O1797   1.261       .  A
N1793      O1798   1.262       .  A
N1796      O1800   1.261       .  A
N1796      O1799   1.262       .  A
C1801      C1802   1.403       .  A
C1801      C1806   1.398       .  A
C1801      H1808   1.083       .  S
C1802      C1803   1.419       .  A
C1803      C1804   1.401       .  A
C1803      N1810   1.429       .  S
C1804      C1805   1.399       .  A
C1804      H1809   1.084       .  S
C1805      C1806   1.411       .  A
C1806      N1807   1.430       .  S
N1807      O1811   1.262       .  A
N1807      O1812   1.262       .  A
N1810      O1814   1.262       .  A
N1810      O1813   1.262       .  A
C1815      C1816   1.405       .  A
C1815      C1820   1.400       .  A
C1815      H1822   1.084       .  S
C1816      C1817   1.407       .  A
C1817      C1818   1.399       .  A
C1817      N1824   1.429       .  S
C1818      C1819   1.406       .  A
C1818      H1823   1.084       .  S
C1819      C1820   1.408       .  A
C1820      N1821   1.429       .  S
N1821      O1825   1.262       .  A
N1821      O1826   1.262       .  A
N1824      O1828   1.262       .  A
N1824      O1827   1.262       .  A
C1829      C1830   1.405       .  A
C1829      C1834   1.398       .  A
C1829      H1836   1.084       .  S
C1830      C1831   1.410       .  A
C1831      C1832   1.404       .  A
C1831      N1838   1.429       .  S
C1832      C1833   1.407       .  A
C1832      H1837   1.082       .  S
C1833      C1834   1.411       .  A
C1834      N1835   1.429       .  S
N1835      O1839   1.262       .  A
N1835      O1840   1.262       .  A
N1838      O1842   1.262       .  A
N1838      O1841   1.262       .  A
C1843      C1844   1.400       .  A
C1843      C1848   1.401       .  A
C1843      H1850   1.084       .  S
C1844      C1845   1.410       .  A
C1845      C1846   1.399       .  A
C1845      N1852   1.429       .  S
C1846      C1847   1.405       .  A
C1846      H1851   1.083       .  S
C1847      C1848   1.418       .  A
C1848      N1849   1.429       .  S
N1849      O1853   1.262       .  A
N1849      O1854   1.262       .  A
N1852      O1856   1.262       .  A
N1852      O1855   1.262       .  A
C1857      C1858   1.401       .  A
C1857      C1862   1.398       .  A
C1857      H1864   1.084       .  S
C1858      C1859   1.414       .  A
C1859      C1860   1.398       .  A
C1859      N1866   1.429   1_554  S
C1860      C1861   1.401       .  A
C1860      H1865   1.084       .  S
C1861      C1862   1.414       .  A
C1862      N1863   1.429       .  S
N1863      O1867   1.262       .  A
N1863      O1868   1.262       .  A
N1866      O1870   1.262       .  A
N1866      O1869   1.262       .  A
C1871      C1872   1.404       .  A
C1871      C1876   1.399       .  A
C1871      H1878   1.084       .  S
C1872      C1873   1.407       .  A
C1873      C1874   1.407       .  A
C1873      N1880   1.430       .  S
C1874      C1875   1.412       .  A
C1874      H1879   1.084       .  S
C1875      C1876   1.411       .  A
C1876      N1877   1.428       .  S
N1877      O1881   1.262       .  A
N1877      O1882   1.262       .  A
N1880      O1884   1.262       .  A
N1880      O1883   1.262       .  A
C1885      C1886   1.403       .  A
C1885      C1890   1.401       .  A
C1885      H1892   1.084       .  S
C1886      C1887   1.416       .  A
C1887      C1888   1.399       .  A
C1887      N1894   1.429       .  S
C1888      C1889   1.402       .  A
C1888      H1893   1.084       .  S
C1889      C1890   1.415       .  A
C1890      N1891   1.429       .  S
N1891      O1895   1.262       .  A
N1891      O1896   1.262       .  A
N1894      O1898   1.262       .  A
N1894      O1897   1.262       .  A
C1899      C1900   1.403       .  A
C1899      C1904   1.397       .  A
C1899      H1906   1.084       .  S
C1900      C1901   1.405       .  A
C1901      C1902   1.397       .  A
C1901      N1908   1.429       .  S
C1902      C1903   1.409       .  A
C1902      H1907   1.083       .  S
C1903      C1904   1.412       .  A
C1904      N1905   1.429       .  S
N1905      O1909   1.262       .  A
N1905      O1910   1.262       .  A
N1908      O1912   1.262       .  A
N1908      O1911   1.262       .  A
C1913      C1914   1.400       .  A
C1913      C1918   1.397       .  A
C1913      H1920   1.081       .  S
C1914      C1915   1.405       .  A
C1915      C1916   1.405       .  A
C1915      N1922   1.429       .  S
C1916      C1917   1.411       .  A
C1916      H1921   1.083       .  S
C1917      C1918   1.413       .  A
C1918      N1919   1.429       .  S
N1919      O1923   1.262       .  A
N1919      O1924   1.262       .  A
N1922      O1926   1.262       .  A
N1922      O1925   1.262       .  A
C1927      C1928   1.402       .  A
C1927      C1932   1.396       .  A
C1927      H1934   1.084       .  S
C1928      C1929   1.417       .  A
C1929      C1930   1.402       .  A
C1929      N1936   1.429       .  S
C1930      C1931   1.401       .  A
C1930      H1935   1.084       .  S
C1931      C1932   1.415       .  A
C1932      N1933   1.430       .  S
N1933      O1937   1.262       .  A
N1933      O1938   1.262       .  A
N1936      O1940   1.262       .  A
N1936      O1939   1.262       .  A
C1941      C1942   1.403       .  A
C1941      C1946   1.402       .  A
C1941      H1948   1.084       .  S
C1942      C1943   1.413       .  A
C1943      C1944   1.396       .  A
C1943      N1950   1.430       .  S
C1944      C1945   1.403       .  A
C1944      H1949   1.084       .  S
C1945      C1946   1.413       .  A
C1946      N1947   1.430       .  S
N1947      O1951   1.261       .  A
N1947      O1952   1.262       .  A
N1950      O1954   1.262       .  A
N1950      O1953   1.262       .  A
C1955      C1956   1.405       .  A
C1955      C1960   1.399   1_565  A
C1955      H1962   1.084       .  S
C1956      C1957   1.413       .  A
C1957      C1958   1.398   1_565  A
C1957      N1964   1.429       .  S
C1958      C1959   1.401       .  A
C1958      H1963   1.084       .  S
C1959      C1960   1.410       .  A
C1960      N1961   1.430       .  S
N1961      O1965   1.262       .  A
N1961      O1966   1.262       .  A
N1964      O1968   1.262       .  A
N1964      O1967   1.262       .  A
