geometry optimzed in LAMMPS
_audit_creation_date              2020-12-01 
_audit_creation_method            'lammps2cif' 
_symmetry_space_group_name_H-M    'P1' 
_symmetry_Int_Tables_number       1 
_symmetry_cell_setting            triclinic 
loop_ 
_symmetry_equiv_pos_as_xyz 
  x,y,z 
_cell_length_a                    29.58894747 
_cell_length_b                    29.818309952088704 
_cell_length_c                    29.467571463269827 
_cell_angle_alpha                 90.05103392019238 
_cell_angle_beta                  90.88268256516463 
_cell_angle_gamma                 91.48572708620631 
loop_ 
_atom_site_label 
_atom_site_type_symbol 
_atom_site_fract_x 
_atom_site_fract_y 
_atom_site_fract_z 
_atom_site_charge 
C1          C  0.83615763  0.81671120  0.04765062     0.79600
N2          N  0.87993848  0.80471020  0.04442095    -0.78700
C3          C  0.89780806  0.79445551  0.00373395     0.82100
N4          N  0.86956573  0.78568348  0.96881298    -0.78600
C5          C  0.82950388  0.80554429  0.96741278     0.82200
N6          N  0.81093296  0.82030277  0.00763066    -0.80300
C7          C  0.76732442  0.27720496  0.05840804     0.79600
N8          N  0.75865899  0.30005471  0.01779037    -0.78700
C9          C  0.76027765  0.27650812  0.97671184     0.82100
N10         N  0.77235710  0.23340191  0.97767279    -0.78600
C11         C  0.78265129  0.21235622  0.01638644     0.82200
N12         N  0.77827512  0.23370587  0.05616696    -0.80300
C13         C  0.28820172  0.83920085  0.05041807     0.79600
N14         N  0.29933590  0.85976116  0.00956081    -0.78700
C15         C  0.28134976  0.84169193  0.96939810     0.82100
N16         N  0.25231282  0.80594543  0.97187144    -0.78600
C17         C  0.24020648  0.78728765  0.01203928     0.82200
N18         N  0.26101189  0.80250976  0.05004169    -0.80300
C19         C  0.82120935  0.12311001  0.77563844     0.79600
N20         N  0.86566060  0.13126060  0.77265611    -0.78700
C21         C  0.89573723  0.09899071  0.76912613     0.82100
N22         N  0.88104837  0.05519238  0.76805794    -0.78600
C23         C  0.83580415  0.04402290  0.76925179     0.82200
N24         N  0.80505563  0.07879966  0.77275343    -0.80300
C25         C  0.98529753  0.30690798  0.78421746     0.79600
N26         N  0.99387201  0.30978794  0.82968355    -0.78700
C27         C  0.03655484  0.31206690  0.84694129     0.82100
N28         N  0.07107031  0.30983895  0.81854483    -0.78600
C29         C  0.06650387  0.30460859  0.77351147     0.82200
N30         N  0.02244199  0.30350394  0.75488235    -0.80300
C31         C  0.99607883  0.86904790  0.75923509     0.79600
N32         N  0.99858975  0.90729628  0.73421566    -0.78700
C33         C  0.03873240  0.92437335  0.71903066     0.82100
N34         N  0.07626969  0.90154926  0.72769437    -0.78600
C35         C  0.07620574  0.86431236  0.75305757     0.82200
N36         N  0.03567557  0.84671381  0.76904305    -0.80300
C37         C  0.27255038  0.11923451  0.79782652     0.79600
N38         N  0.29940343  0.11902827  0.83560936    -0.78700
C39         C  0.31400053  0.08029003  0.85395498     0.82100
N40         N  0.29955498  0.04088725  0.83522262    -0.78600
C41         C  0.27239686  0.03893826  0.79801435     0.82200
N42         N  0.25974295  0.07868237  0.77767649    -0.80300
C43         C  0.00520220  0.80578316  0.21067897     0.79600
N44         N  0.00242601  0.77772093  0.17531380    -0.78700
C45         C  0.03813591  0.76633616  0.15049096     0.82100
N46         N  0.08013095  0.78127632  0.16388695    -0.78600
C47         C  0.08670043  0.80711058  0.20198543     0.82200
N48         N  0.04832619  0.82034684  0.22577670    -0.80300
C49         C  0.79500420  0.11362950  0.19917812     0.79600
N50         N  0.79459159  0.07207438  0.22161904    -0.78700
C51         C  0.79320435  0.03184677  0.19673354     0.82100
N52         N  0.79082789  0.03452791  0.15086978    -0.78600
C53         C  0.78994653  0.07422327  0.12850220     0.82200
N54         N  0.79280530  0.11312576  0.15300221    -0.80300
C55         C  0.99431842  0.26033073  0.28096214     0.79600
N56         N  0.99235441  0.21545614  0.28438100    -0.78700
C57         C  0.02776157  0.18973936  0.27478687     0.82100
N58         N  0.06889131  0.20989710  0.26749159    -0.78600
C59         C  0.07517396  0.25533326  0.26997306     0.82200
N60         N  0.03667909  0.28139053  0.27483799    -0.80300
Zr61       Zr  0.33673696  0.37864661  0.30695910     2.17500
O62         O  0.38302047  0.42627916  0.35441965    -0.51900
O63         O  0.31150151  0.45883139  0.29485323    -0.75100
O64         O  0.42100578  0.37411762  0.28434447    -0.81900
O65         O  0.25210368  0.33459050  0.40521204    -0.83600
O66         O  0.42765470  0.34557593  0.21314433    -0.79300
O67         O  0.32257423  0.36340288  0.39086889    -0.90900
O68         O  0.25810358  0.47481723  0.24180296    -0.76900
O69         O  0.32051330  0.39207992  0.22885214    -0.86400
O70         O  0.25630801  0.38629622  0.30176686    -0.86000
O71         O  0.36068706  0.31165974  0.26852309    -0.72800
O72         O  0.30044637  0.31039307  0.33380588    -0.84900
Zr73       Zr  0.23235910  0.26280992  0.20781800     2.26400
Zr74       Zr  0.34740745  0.32722149  0.18952027     2.06300
Zr75       Zr  0.21995956  0.31796328  0.32733928     2.10000
Zr76       Zr  0.23940326  0.39754163  0.22332998     1.78800
O77         O  0.19310424  0.25984963  0.37909190    -0.93700
O78         O  0.25401171  0.43678568  0.15226402    -0.41600
O79         O  0.20460612  0.32775216  0.24736565    -0.78200
O80         O  0.26612499  0.33429582  0.18447024    -0.96900
O81         O  0.31268518  0.25680390  0.21539474    -0.90200
O82         O  0.24508684  0.25243525  0.28736394    -0.93000
C83         C  0.28550369  0.48711427  0.27332608     1.00700
C84         C  0.29153455  0.34936019  0.41921406     1.13700
C85         C  0.44601943  0.36017018  0.25077232     1.04400
O86         O  0.37036270  0.39536952  0.14960719    -0.95200
O87         O  0.31989364  0.31405235  0.11067594    -0.90900
O88         O  0.25344515  0.27615230  0.12480558    -0.84100
C89         C  0.28230301  0.29567536  0.09686862     1.11100
O90         O  0.37908968  0.24980704  0.35764195    -0.97100
Zr91       Zr  0.32456205  0.24458717  0.29503696     1.88900
O92         O  0.24513533  0.18075948  0.22585920    -0.73800
O93         O  0.39470589  0.27526437  0.14921205    -0.53100
O94         O  0.39576239  0.20887922  0.27932801    -0.97700
O95         O  0.29324801  0.20333228  0.35918733    -0.55000
O96         O  0.30837783  0.16885086  0.26785429    -0.74300
C97         C  0.27337792  0.15416892  0.24607152     0.98000
O98         O  0.18894729  0.21715228  0.15389278    -0.63100
O99         O  0.17171297  0.37691700  0.35511845    -0.57900
O100        O  0.14965907  0.26133800  0.23299903    -0.94600
O101        O  0.14197552  0.29370509  0.30263448    -0.93000
O102        O  0.17358679  0.42814104  0.25976429    -0.93400
O103        O  0.17644074  0.39512442  0.16899563    -0.92200
C104        C  0.12483959  0.27303054  0.26745357     1.16900
H105        H  0.24648833  0.41102608  0.32002373     0.32800
H106        H  0.25634816  0.34487813  0.15523381     0.43700
H107        H  0.22889448  0.22605967  0.29807492     0.37200
H108        H  0.39122970  0.30327976  0.27501846     0.33700
H109        H  0.23779476  0.46532696  0.15447637     0.25500
H110        H  0.41632912  0.29473040  0.13245950     0.31400
H111        H  0.40647365  0.22312728  0.25099990     0.37300
H112        H  0.15039299  0.40360439  0.25856695     0.31800
H113        H  0.14090454  0.36324152  0.35597796     0.30600
H114        H  0.17841342  0.27633077  0.40378915     0.32300
H115        H  0.29053376  0.22605171  0.38346252     0.31300
H116        H  0.17221213  0.36299945  0.16105314     0.35300
H117        H  0.21156444  0.19806023  0.13946488     0.28000
H118        H  0.40600413  0.43884858  0.33362658     0.32300
H119        H  0.37854027  0.28148471  0.36770912     0.35100
H120        H  0.18042450  0.38113903  0.38743109     0.27700
H121        H  0.17122267  0.19601714  0.17295395     0.40600
H122        H  0.37607621  0.38564125  0.11813135     0.30600
H123        H  0.28643616  0.44576210  0.15403315     0.38300
H124        H  0.31777801  0.18379070  0.36985756     0.30100
H125        H  0.41327363  0.26111997  0.17319565     0.30200
H126        H  0.39918931  0.40479558  0.37375575     0.30400
C127        C  0.26051081  0.10491087  0.25106024     0.79600
N128        N  0.21799261  0.09606471  0.26603512    -0.78700
C129        C  0.20295850  0.05357850  0.27496703     0.82100
N130        N  0.23079085  0.01955209  0.26768447    -0.78600
C131        C  0.27303149  0.02576366  0.25183608     0.82200
N132        N  0.28894043  0.06917610  0.24363159    -0.80300
Zr133      Zr  0.34821397  0.77061008  0.31553487     2.17500
O134        O  0.40494941  0.72066055  0.34590350    -0.51900
O135        O  0.32810398  0.77420493  0.39835314    -0.75100
O136        O  0.43028604  0.79830800  0.31404168    -0.81900
O137        O  0.25842433  0.67676456  0.26271334    -0.83600
O138        O  0.44102313  0.86773452  0.28265298    -0.79300
O139        O  0.32318747  0.68926636  0.30420394    -0.90900
O140        O  0.27916211  0.82808089  0.41717395    -0.76900
O141        O  0.33451963  0.84693839  0.33473099    -0.86400
O142        O  0.26824433  0.77311632  0.32332083    -0.86000
O143        O  0.37193674  0.81478196  0.25093018    -0.72800
O144        O  0.31318206  0.74826893  0.24394311    -0.84900
Zr145      Zr  0.24478359  0.87450951  0.20651026     2.26400
Zr146      Zr  0.36058692  0.89199276  0.27108560     2.06300
Zr147      Zr  0.23264096  0.75360230  0.25146190     2.10000
Zr148      Zr  0.25383885  0.84886755  0.34187842     1.78800
O149        O  0.20404972  0.70331135  0.19175743    -0.93700
O150        O  0.26393528  0.92066821  0.38119013    -0.41600
O151        O  0.21838078  0.83024563  0.26985739    -0.78200
O152        O  0.27919884  0.89368221  0.27977208    -0.96900
O153        O  0.32500905  0.86955322  0.20008745    -0.90200
O154        O  0.25791004  0.79783169  0.18770929    -0.93000
C155        C  0.30422351  0.79558729  0.42789017     1.00700
C156        C  0.29230700  0.66245488  0.28575433     1.13700
C157        C  0.45678412  0.83039484  0.29799130     1.04400
O158        O  0.38586588  0.93252620  0.33912670    -0.95200
O159        O  0.33035624  0.96872581  0.25906720    -0.90900
O160        O  0.26549548  0.95513667  0.21775312    -0.84100
C161        C  0.29376747  0.98202878  0.23907981     1.11100
O162        O  0.38939012  0.73019692  0.18572518    -0.97100
Zr163      Zr  0.33812206  0.79299642  0.18115317     1.88900
O164        O  0.26616004  0.86523935  0.12360994    -0.73800
O165        O  0.40533743  0.93578149  0.21724959    -0.53100
O166        O  0.41116530  0.80865086  0.14621651    -0.97700
O167        O  0.30481063  0.73868882  0.12768600    -0.55000
O168        O  0.33629084  0.83969486  0.11442759    -0.74300
C169        C  0.29945787  0.85391088  0.09786192     0.98000
O170        O  0.20081817  0.93440057  0.17247227    -0.63100
O171        O  0.18315621  0.72040602  0.30843330    -0.57900
O172        O  0.16008796  0.85057930  0.21145867    -0.94600
O173        O  0.15586318  0.77646944  0.22948000    -0.93000
O174        O  0.19172801  0.80501225  0.37497791    -0.93400
O175        O  0.18417241  0.88812481  0.35188417    -0.92200
C176        C  0.13675172  0.81307687  0.21738935     1.16900
H177        H  0.25830754  0.75265291  0.34673884     0.32800
H178        H  0.26926933  0.92223381  0.29036001     0.43700
H179        H  0.24198059  0.78914253  0.16011273     0.37200
H180        H  0.40206576  0.80868393  0.24171397     0.33700
H181        H  0.27228523  0.91325207  0.41290655     0.25500
H182        H  0.43368649  0.91937552  0.21354998     0.31400
H183        H  0.43409788  0.80833397  0.17102025     0.37300
H184        H  0.20520867  0.78602180  0.39887795     0.31800
H185        H  0.15859742  0.74197266  0.31209676     0.30600
H186        H  0.21996736  0.71257516  0.16388763     0.32300
H187        H  0.30726979  0.70931098  0.14306042     0.31300
H188        H  0.16353298  0.87482408  0.32846480     0.35300
H189        H  0.21053981  0.93636875  0.14051159     0.28000
H190        H  0.41300829  0.70157929  0.31988423     0.32300
H191        H  0.39429100  0.72074034  0.15400943     0.35100
H192        H  0.16843868  0.69423716  0.29301933     0.27700
H193        H  0.16898206  0.92362389  0.17076290     0.40600
H194        H  0.41731753  0.92327968  0.34491892     0.30600
H195        H  0.29183954  0.93441202  0.36859124     0.38300
H196        H  0.32656367  0.73757084  0.10254068     0.30100
H197        H  0.38925126  0.93197845  0.18772628     0.30200
H198        H  0.38827165  0.70029857  0.36664674     0.30400
Zr199      Zr  0.84051514  0.27729140  0.21009255     2.17500
O200        O  0.90033929  0.28555565  0.15431491    -0.51900
O201        O  0.82370020  0.19250238  0.20340169    -0.75100
O202        O  0.92107369  0.26859273  0.24249144    -0.81900
O203        O  0.74068625  0.31966880  0.12277197    -0.83600
O204        O  0.93171533  0.30003193  0.31255041    -0.79300
O205        O  0.80557014  0.28090794  0.13119523    -0.90900
O206        O  0.77128600  0.16953329  0.25464248    -0.76900
O207        O  0.82974889  0.25418941  0.28680319    -0.86400
O208        O  0.76074937  0.26573181  0.21690982    -0.86000
O209        O  0.86497705  0.33959394  0.25806658    -0.72800
O210        O  0.80357839  0.34827114  0.19623453    -0.84900
Zr211      Zr  0.73615023  0.37393767  0.32717643     2.26400
Zr212      Zr  0.85351496  0.31644326  0.33478111     2.06300
Zr213      Zr  0.72297239  0.33554377  0.20247921     2.10000
Zr214      Zr  0.75038003  0.24049361  0.29252970     1.78800
O215        O  0.70252660  0.39987777  0.15681363    -0.93700
O216        O  0.77748783  0.19095381  0.35223599    -0.41600
O217        O  0.71276204  0.31091469  0.27927217    -0.78200
O218        O  0.77322608  0.30255999  0.34079080    -0.96900
O219        O  0.81627619  0.38617429  0.32173448    -0.90200
O220        O  0.74852043  0.39712618  0.25032524    -0.93000
C221        C  0.79797948  0.16096487  0.22169082     1.00700
C222        C  0.77223925  0.29603740  0.10634749     1.13700
C223        C  0.94716977  0.28028398  0.27730449     1.04400
O224        O  0.88315939  0.25594574  0.38103506    -0.95200
O225        O  0.82945605  0.32705052  0.41322057    -0.90900
O226        O  0.76515537  0.36743131  0.40926982    -0.84100
C227        C  0.79762461  0.34852199  0.43226793     1.11100
O228        O  0.88569329  0.42188116  0.18773577    -0.97100
Zr229      Zr  0.82891375  0.40911243  0.24564214     1.88900
O230        O  0.74652814  0.45992326  0.31717829    -0.73800
O231        O  0.90398813  0.37534249  0.36460387    -0.53100
O232        O  0.90242737  0.43894491  0.27133499    -0.97700
O233        O  0.80337964  0.46528700  0.19232425    -0.55000
O234        O  0.81790487  0.47396125  0.29455239    -0.74300
C235        C  0.77948373  0.48818733  0.30614336     0.98000
O236        O  0.68004694  0.38235708  0.38529955    -0.63100
O237        O  0.66593912  0.28251625  0.17222299    -0.57900
O238        O  0.65263016  0.36523527  0.30125715    -0.94600
O239        O  0.64478589  0.35282042  0.22532173    -0.93000
O240        O  0.68146162  0.20756962  0.25936505    -0.93400
O241        O  0.69609081  0.22693578  0.35242554    -0.92200
C242        C  0.62723295  0.35867451  0.26460954     1.16900
H243        H  0.75000430  0.24293470  0.19580335     0.32800
H244        H  0.76589590  0.29210110  0.37079581     0.43700
H245        H  0.73224182  0.42377309  0.24248875     0.37200
H246        H  0.89641746  0.34673594  0.25278198     0.33700
H247        H  0.80828053  0.18290561  0.34302910     0.25500
H248        H  0.88358062  0.39654322  0.37929574     0.31400
H249        H  0.89974662  0.44328700  0.30447535     0.37300
H250        H  0.66332557  0.23362473  0.25034618     0.31800
H251        H  0.65044662  0.29904670  0.14763050     0.30600
H252        H  0.67360242  0.39077860  0.14170783     0.32300
H253        H  0.80701252  0.45162896  0.16200103     0.31300
H254        H  0.68814783  0.25724140  0.36290557     0.35300
H255        H  0.67783181  0.35215603  0.39915367     0.28000
H256        H  0.92153061  0.26087804  0.15969052     0.32300
H257        H  0.88314343  0.39505609  0.16795949     0.35100
H258        H  0.68267970  0.25906700  0.15628393     0.27700
H259        H  0.69413407  0.40149800  0.40925646     0.40600
H260        H  0.85668431  0.24298157  0.39692829     0.30600
H261        H  0.78237113  0.21045802  0.37915531     0.38300
H262        H  0.82663126  0.48974632  0.19400952     0.30100
H263        H  0.92032789  0.36104582  0.39010166     0.30200
H264        H  0.91750821  0.31317813  0.16328820     0.30400
Zr265      Zr  0.74411525  0.77610309  0.31653127     2.17500
O266        O  0.69259528  0.72693805  0.35482433    -0.51900
O267        O  0.74938429  0.80137370  0.39820528    -0.75100
O268        O  0.76104171  0.69219231  0.31324174    -0.81900
O269        O  0.65140604  0.86393672  0.27272647    -0.83600
O270        O  0.83074910  0.68197388  0.28374586    -0.79300
O271        O  0.66278165  0.79363576  0.29949497    -0.90900
O272        O  0.80364282  0.85293578  0.41836779    -0.76900
O273        O  0.82298258  0.78604728  0.33223289    -0.86400
O274        O  0.75499064  0.85533504  0.32735411    -0.86000
O275        O  0.78002072  0.75123932  0.24847396    -0.72800
O276        O  0.71906913  0.81381237  0.24872157    -0.84900
Zr277      Zr  0.85211371  0.87519934  0.20680180     2.26400
Zr278      Zr  0.85947513  0.75954787  0.26483438     2.06300
Zr279      Zr  0.73152128  0.89275242  0.25899716     2.10000
Zr280      Zr  0.83412422  0.86561093  0.34277421     1.78800
O281        O  0.68345532  0.91888892  0.19719720    -0.93700
O282        O  0.89656854  0.83587857  0.38750613    -0.41600
O283        O  0.81210344  0.90135632  0.27288820    -0.78200
O284        O  0.87281324  0.83898253  0.27775634    -0.96900
O285        O  0.83618517  0.79690638  0.19583357    -0.90200
O286        O  0.77187038  0.86833078  0.19271897    -0.93000
C287        C  0.76931711  0.82803640  0.42797575     1.00700
C288        C  0.63583127  0.82499158  0.28601184     1.13700
C289        C  0.79275296  0.66590718  0.29899232     1.04400
O290        O  0.90773357  0.71856345  0.31711332    -0.95200
O291        O  0.93898826  0.78270427  0.25041123    -0.90900
O292        O  0.93451213  0.84821851  0.21104218    -0.84100
C293        C  0.95796830  0.81537358  0.22837428     1.11100
O294        O  0.69265794  0.73641673  0.18142407    -0.97100
Zr295      Zr  0.75608887  0.79030950  0.18185796     1.88900
O296        O  0.84424079  0.85072346  0.12350644    -0.73800
O297        O  0.88073096  0.71885880  0.19695052    -0.53100
O298        O  0.76750871  0.72140556  0.13950082    -0.97700
O299        O  0.69299300  0.82723440  0.14473532    -0.55000
O300        O  0.78341824  0.80547356  0.10672046    -0.74300
C301        C  0.81929588  0.82663868  0.09494327     0.98000
O302        O  0.91036476  0.93080728  0.18836571    -0.63100
O303        O  0.70361777  0.94509131  0.31493492    -0.57900
O304        O  0.82612982  0.95671352  0.20148026    -0.94600
O305        O  0.76034484  0.96902906  0.23869663    -0.93000
O306        O  0.81185674  0.93387591  0.38097005    -0.93400
O307        O  0.89346329  0.92408572  0.34101262    -0.92200
C308        C  0.79448381  0.98346598  0.21551866     1.16900
H309        H  0.73709983  0.86663003  0.35174799     0.32800
H310        H  0.90386684  0.84565616  0.28584710     0.43700
H311        H  0.76341458  0.88536652  0.16617628     0.37200
H312        H  0.77141059  0.72100615  0.24009400     0.33700
H313        H  0.92204692  0.83371598  0.36629817     0.25500
H314        H  0.91096492  0.70705824  0.20416537     0.31400
H315        H  0.78210682  0.70087522  0.16128650     0.37300
H316        H  0.81313852  0.95750353  0.35741440     0.31800
H317        H  0.68496640  0.92659332  0.33574227     0.30600
H318        H  0.66790469  0.94491303  0.21003366     0.32300
H319        H  0.66853751  0.82642747  0.16731208     0.31300
H320        H  0.92088835  0.90953718  0.32994912     0.35300
H321        H  0.93105275  0.93276736  0.21506309     0.28000
H322        H  0.67191128  0.71539936  0.33068181     0.32300
H323        H  0.67382510  0.74504994  0.20734870     0.35100
H324        H  0.73060538  0.95427493  0.33325772     0.27700
H325        H  0.92820460  0.91754458  0.16385569     0.40600
H326        H  0.92860956  0.74155768  0.33059583     0.30600
H327        H  0.90576716  0.86044054  0.40860159     0.38300
H328        H  0.68243457  0.80612044  0.12063984     0.30100
H329        H  0.86041627  0.69196119  0.19609304     0.30200
H330        H  0.67501888  0.74980462  0.37038985     0.30400
C331        C  0.26393300  0.30396680  0.04896057     0.79600
N332        N  0.21864433  0.30190282  0.04853566    -0.78700
C333        C  0.19491245  0.29352364  0.01050374     0.82100
N334        N  0.21455729  0.30068086  0.97043661    -0.78600
C335        C  0.25969388  0.30779761  0.96713574     0.82200
N336        N  0.28608530  0.30707223  0.00724437    -0.80300
Zr337      Zr  0.22298335  0.27487181  0.80742244     2.17500
O338        O  0.16756508  0.23144235  0.85032608    -0.51900
O339        O  0.24264697  0.19325096  0.80570479    -0.75100
O340        O  0.14147724  0.27926137  0.78235214    -0.81900
O341        O  0.31442886  0.31852476  0.90512326    -0.83600
O342        O  0.12780950  0.31685230  0.71656537    -0.79300
O343        O  0.24335824  0.29169682  0.88895787    -0.90900
O344        O  0.28125325  0.17682903  0.74249270    -0.76900
O345        O  0.23175104  0.26402001  0.72790884    -0.86400
O346        O  0.30198945  0.26263242  0.80109583    -0.86000
O347        O  0.20047176  0.34406808  0.77119571    -0.72800
O348        O  0.26303393  0.34174790  0.83397962    -0.84900
Zr349      Zr  0.32822881  0.38511393  0.70924296     2.26400
Zr350      Zr  0.20805902  0.33268754  0.69043608     2.06300
Zr351      Zr  0.34286135  0.32921880  0.82667402     2.10000
Zr352      Zr  0.31114518  0.25094155  0.72210699     1.78800
O353        O  0.37971595  0.37605249  0.88477704    -0.93700
O354        O  0.29200459  0.21654777  0.64901226    -0.41600
O355        O  0.35303111  0.31767433  0.74659600    -0.78200
O356        O  0.28790053  0.31717413  0.68464836    -0.96900
O357        O  0.24964717  0.39920554  0.71709975    -0.90200
O358        O  0.31961607  0.39667746  0.78870452    -0.93000
C359        C  0.26234068  0.16499913  0.77947012     1.00700
C360        C  0.27472774  0.30547306  0.91787183     1.13700
C361        C  0.11356015  0.29727131  0.75322499     1.04400
O362        O  0.16562563  0.28469776  0.63719730    -0.95200
O363        O  0.23781538  0.34483216  0.61113484    -0.90900
O364        O  0.30562049  0.37992356  0.62645019    -0.84100
C365        C  0.27601082  0.36247195  0.59785177     1.11100
O366        O  0.17971679  0.41672534  0.85079508    -0.97100
Zr367      Zr  0.24095497  0.40989369  0.79702263     1.88900
O368        O  0.32364345  0.46627847  0.72925096    -0.73800
O369        O  0.17134871  0.40159716  0.66798504    -0.53100
O370        O  0.17906751  0.45192545  0.76380877    -0.97700
O371        O  0.26543426  0.44178769  0.86986716    -0.55000
O372        O  0.27033415  0.48467116  0.77978890    -0.74300
C373        C  0.30332694  0.49522690  0.75420930     0.98000
O374        O  0.37630583  0.42452055  0.65557635    -0.63100
O375        O  0.38809647  0.26484446  0.84670051    -0.57900
O376        O  0.41048374  0.38301373  0.73348982    -0.94600
O377        O  0.42044752  0.35404672  0.80432630    -0.93000
O378        O  0.37115691  0.20676705  0.75572891    -0.93400
O379        O  0.37503411  0.24866099  0.67103274    -0.92200
C380        C  0.43630326  0.37267163  0.76812998     1.16900
H381        H  0.31148332  0.23724053  0.81878720     0.32800
H382        H  0.29597974  0.30785712  0.65470790     0.43700
H383        H  0.33813943  0.42159297  0.79982809     0.37200
H384        H  0.17057292  0.35265231  0.77933739     0.33700
H385        H  0.29491892  0.18389192  0.65380751     0.25500
H386        H  0.16597493  0.39844923  0.63488740     0.31400
H387        H  0.15276820  0.43071439  0.76286191     0.37300
H388        H  0.37260347  0.17970262  0.73636064     0.31800
H389        H  0.41151297  0.26392982  0.82308761     0.30600
H390        H  0.36448024  0.40514955  0.88269504     0.32300
H391        H  0.29227290  0.46102368  0.86317494     0.31300
H392        H  0.39995483  0.26509438  0.68719760     0.35300
H393        H  0.38517320  0.40273767  0.63225045     0.28000
H394        H  0.18585505  0.21425844  0.87209979     0.32300
H395        H  0.17608647  0.44938327  0.85502944     0.35100
H396        H  0.40479800  0.27421760  0.87463365     0.27700
H397        H  0.35682585  0.44619715  0.63970179     0.40600
H398        H  0.18837644  0.26475767  0.62429447     0.30600
H399        H  0.25911427  0.22083525  0.64509651     0.38300
H400        H  0.27770627  0.41623825  0.88711803     0.30100
H401        H  0.14081604  0.39926509  0.68119033     0.30200
H402        H  0.15522920  0.20830772  0.82905801     0.30400
Zr403      Zr  0.22929184  0.87925955  0.81493551     2.17500
O404        O  0.17455873  0.91577676  0.86235889    -0.51900
O405        O  0.24827266  0.96202760  0.80978549    -0.75100
O406        O  0.25291682  0.86875830  0.89748769    -0.81900
O407        O  0.13903254  0.82743095  0.72682797    -0.83600
O408        O  0.32732221  0.85079783  0.90353823    -0.79300
O409        O  0.14736838  0.86758807  0.79269610    -0.90900
O410        O  0.27468049  0.98234065  0.74110309    -0.76900
O411        O  0.30639919  0.89836759  0.80078486    -0.86400
O412        O  0.23234554  0.89330626  0.73451195    -0.86000
O413        O  0.27056266  0.81276801  0.83561358    -0.72800
O414        O  0.20660076  0.81260672  0.77274873    -0.84900
Zr415      Zr  0.33260726  0.77954060  0.70917425     2.26400
Zr416      Zr  0.34921764  0.83415552  0.82456019     2.06300
Zr417      Zr  0.21372395  0.82496203  0.69290330     2.10000
Zr418      Zr  0.30914897  0.91231861  0.72057710     1.78800
O419        O  0.16279555  0.76725479  0.66090480    -0.93700
O420        O  0.37051538  0.96449938  0.74238777    -0.41600
O421        O  0.29160667  0.84314135  0.68257730    -0.78200
O422        O  0.35385460  0.85054259  0.74459317    -0.96900
O423        O  0.32448467  0.76515938  0.78751029    -0.90200
O424        O  0.25484039  0.76028455  0.71591469    -0.93000
C425        C  0.26177456  0.99228720  0.78085429     1.00700
C426        C  0.12275442  0.84838413  0.76080549     1.13700
C427        C  0.28878830  0.85850891  0.92150577     1.04400
O428        O  0.39783008  0.89174444  0.85988231    -0.95200
O429        O  0.42825389  0.82545895  0.79697940    -0.90900
O430        O  0.41166632  0.78980104  0.73085653    -0.84100
C431        C  0.44038773  0.80691767  0.75961393     1.11100
O432        O  0.18667181  0.69654856  0.76316082    -0.97100
Zr433      Zr  0.24531556  0.74712370  0.79478460     1.88900
O434        O  0.33082236  0.69743090  0.72713312    -0.73800
O435        O  0.37710666  0.77030292  0.86731553    -0.53100
O436        O  0.26104207  0.71325868  0.86840397    -0.97700
O437        O  0.17326851  0.74831127  0.83344018    -0.55000
O438        O  0.27716660  0.67567820  0.77717331    -0.74300
C439        C  0.30994627  0.66713052  0.75128865     0.98000
O440        O  0.38262347  0.74914067  0.65231601    -0.63100
O441        O  0.17953632  0.88202551  0.64535112    -0.57900
O442        O  0.31217790  0.78339044  0.62847507    -0.94600
O443        O  0.24164827  0.80932080  0.61502716    -0.93000
O444        O  0.27549076  0.93194396  0.64751084    -0.93400
O445        O  0.36663492  0.92809450  0.66407718    -0.92200
C446        C  0.27931666  0.79331565  0.60135606     1.16900
H447        H  0.21249285  0.91715889  0.72583773     0.32800
H448        H  0.38333749  0.86188009  0.73624813     0.43700
H449        H  0.24689383  0.73438369  0.69749877     0.37200
H450        H  0.26563427  0.80139719  0.86569670     0.33700
H451        H  0.36276060  0.99346577  0.72821088     0.25500
H452        H  0.40388146  0.76015461  0.85081573     0.31400
H453        H  0.24687691  0.68284794  0.86654204     0.37300
H454        H  0.26190109  0.96151624  0.65232750     0.31800
H455        H  0.16631814  0.86519156  0.61915670     0.30600
H456        H  0.18206798  0.74786430  0.64249680     0.32300
H457        H  0.17702425  0.77283769  0.85594954     0.31300
H458        H  0.37484325  0.89821676  0.65259663     0.35300
H459        H  0.40357697  0.77413185  0.64396370     0.28000
H460        H  0.19284648  0.93559742  0.88286721     0.32300
H461        H  0.19925243  0.68332812  0.73540076     0.35100
H462        H  0.15303913  0.89168212  0.66258017     0.27700
H463        H  0.40175026  0.72742309  0.66858826     0.40600
H464        H  0.39435914  0.91843981  0.84031358     0.30600
H465        H  0.36662413  0.96950253  0.77529608     0.38300
H466        H  0.17181164  0.72041693  0.85155465     0.30100
H467        H  0.38957595  0.78334121  0.89591393     0.30200
H468        H  0.16248143  0.89165381  0.88210543     0.30400
Zr469      Zr  0.82371220  0.28016573  0.82422678     2.17500
O470        O  0.87528395  0.25385474  0.88332491    -0.51900
O471        O  0.81746795  0.19739007  0.80542044    -0.75100
O472        O  0.79260842  0.28091791  0.90322696    -0.81900
O473        O  0.91986491  0.31588191  0.73174023    -0.83600
O474        O  0.72578863  0.31542439  0.91240172    -0.79300
O475        O  0.90616520  0.29592352  0.80458751    -0.90900
O476        O  0.76228157  0.17451572  0.75549202    -0.76900
O477        O  0.74481785  0.26456558  0.81171773    -0.86400
O478        O  0.81511581  0.26303791  0.74553574    -0.86000
O479        O  0.78534932  0.34822960  0.84423377    -0.72800
O480        O  0.84904248  0.34637212  0.78455619    -0.84900
Zr481      Zr  0.72219797  0.38240546  0.71094829     2.26400
Zr482      Zr  0.70608562  0.33177359  0.83212375     2.06300
Zr483      Zr  0.84090717  0.32844645  0.70563467     2.10000
Zr484      Zr  0.73606339  0.24831547  0.73240891     1.78800
O485        O  0.88164107  0.38961136  0.66798754    -0.93700
O486        O  0.66863229  0.20645865  0.75611984    -0.41600
O487        O  0.76135103  0.31439542  0.69307950    -0.78200
O488        O  0.69754131  0.31531440  0.75201683    -0.96900
O489        O  0.73053802  0.39775375  0.79034301    -0.90200
O490        O  0.80158316  0.39651397  0.72351137    -0.93000
C491        C  0.79623896  0.16630465  0.78133130     1.00700
C492        C  0.93426032  0.30548704  0.77175497     1.13700
C493        C  0.75994374  0.29446881  0.92861577     1.04400
O494        O  0.65722512  0.27186304  0.86162826    -0.95200
O495        O  0.62805905  0.34788882  0.80889246    -0.90900
O496        O  0.64209491  0.38473847  0.74262909    -0.84100
C497        C  0.61454364  0.37058901  0.77454534     1.11100
O498        O  0.86322149  0.42141709  0.86523567    -0.97100
Zr499      Zr  0.80924902  0.41351770  0.80234105     1.88900
O500        O  0.73730407  0.46819727  0.71555019    -0.73800
O501        O  0.68105193  0.39488336  0.87686899    -0.53100
O502        O  0.78387257  0.45887840  0.86533038    -0.97700
O503        O  0.87964515  0.44740780  0.77513292    -0.55000
O504        O  0.78462607  0.48670366  0.77457890    -0.74300
C505        C  0.75954931  0.49815788  0.74084088     0.98000
O506        O  0.66409538  0.38867844  0.65159419    -0.63100
O507        O  0.88185587  0.27162963  0.66465208    -0.57900
O508        O  0.75493529  0.37558792  0.63094937    -0.94600
O509        O  0.80912694  0.32322773  0.62924910    -0.93000
O510        O  0.76533632  0.21105506  0.66574104    -0.93400
O511        O  0.67808685  0.24701431  0.67255211    -0.92200
C512        C  0.78358403  0.35105693  0.60900843     1.16900
H513        H  0.83318803  0.23825914  0.73619147     0.32800
H514        H  0.66641144  0.30785187  0.74450266     0.43700
H515        H  0.81203251  0.42133951  0.70508565     0.37200
H516        H  0.79162013  0.35666949  0.87533194     0.33700
H517        H  0.67077613  0.17664975  0.74157284     0.25500
H518        H  0.65922885  0.38151926  0.89845861     0.31400
H519        H  0.75246651  0.46668189  0.85713653     0.37300
H520        H  0.76824220  0.23494233  0.64257362     0.31800
H521        H  0.85822864  0.25109809  0.65162597     0.30600
H522        H  0.91293191  0.37911817  0.66512140     0.32300
H523        H  0.87080717  0.46592943  0.74875269     0.31300
H524        H  0.67613407  0.21562283  0.66158419     0.35300
H525        H  0.67424239  0.37131901  0.62519269     0.28000
H526        H  0.85849541  0.23025373  0.90025759     0.32300
H527        H  0.88711256  0.39986730  0.85841354     0.35100
H528        H  0.89470614  0.28757952  0.63816313     0.27700
H529        H  0.63745830  0.37097873  0.66192025     0.40600
H530        H  0.63348966  0.26652906  0.83806175     0.30600
H531        H  0.67367456  0.20068040  0.78885336     0.38300
H532        H  0.89619659  0.42225045  0.76182590     0.30100
H533        H  0.70764366  0.40377151  0.89592756     0.30200
H534        H  0.87956035  0.27910607  0.90494339     0.30400
Zr535      Zr  0.83983459  0.88307021  0.81675633     2.17500
O536        O  0.87351767  0.93007574  0.87619743    -0.51900
O537        O  0.92233734  0.87690926  0.79435038    -0.75100
O538        O  0.83554455  0.84784533  0.89686742    -0.81900
O539        O  0.80273873  0.97902265  0.72933879    -0.83600
O540        O  0.78913853  0.78542436  0.90169866    -0.79300
O541        O  0.83643032  0.96663453  0.79824002    -0.90900
O542        O  0.93444656  0.81841993  0.74719870    -0.76900
O543        O  0.84732161  0.80473378  0.80167937    -0.86400
O544        O  0.84958410  0.87725003  0.73630435    -0.86000
O545        O  0.76963859  0.84578094  0.83755442    -0.72800
O546        O  0.77307082  0.91105208  0.77902755    -0.84900
Zr547      Zr  0.72241905  0.78595772  0.70981673     2.26400
Zr548      Zr  0.77751655  0.76607407  0.82302912     2.06300
Zr549      Zr  0.78244894  0.90315067  0.69829616     2.10000
Zr550      Zr  0.85837924  0.79955359  0.72158070     1.78800
O551        O  0.72512976  0.95364997  0.67002421    -0.93700
O552        O  0.89708043  0.73089334  0.74158078    -0.41600
O553        O  0.79053083  0.82450804  0.68497439    -0.78200
O554        O  0.79152509  0.75972535  0.74349191    -0.96900
O555        O  0.71072829  0.79515361  0.78836933    -0.90200
O556        O  0.71414541  0.86490704  0.72219393    -0.93000
C557        C  0.94884022  0.85230375  0.77011240     1.00700
C558        C  0.82274550  0.99363583  0.76609809     1.13700
C559        C  0.81475911  0.81568780  0.91997088     1.04400
O560        O  0.83634191  0.71899579  0.85448944    -0.95200
O561        O  0.76265024  0.68784973  0.79569524    -0.90900
O562        O  0.72753345  0.70257574  0.72819736    -0.84100
C563        C  0.74482656  0.67442407  0.75764743     1.11100
O564        O  0.70776746  0.93033751  0.86236824    -0.97100
Zr565      Zr  0.70404914  0.87427380  0.80204388     1.88900
O566        O  0.64460155  0.80538225  0.73089497    -0.73800
O567        O  0.71221132  0.73623063  0.86362897    -0.53100
O568        O  0.67004595  0.84448225  0.87098107    -0.97700
O569        O  0.66998756  0.94380498  0.77704296    -0.55000
O570        O  0.62598948  0.85447468  0.78496979    -0.74300
C571        C  0.61492704  0.82652522  0.75395234     0.98000
O572        O  0.66515523  0.74641778  0.66345611    -0.63100
O573        O  0.84142308  0.93420314  0.64983136    -0.57900
O574        O  0.72979635  0.80734057  0.62807411    -0.94600
O575        O  0.76473300  0.87583367  0.61919710    -0.93000
O576        O  0.89548012  0.83428327  0.65673551    -0.93400
O577        O  0.85883018  0.74971207  0.65596292    -0.92200
C578        C  0.74483976  0.83997280  0.60267374     1.16900
H579        H  0.87535007  0.89491221  0.72624260     0.32800
H580        H  0.80012352  0.73039636  0.73390336     0.43700
H581        H  0.68863960  0.87591079  0.70506873     0.37200
H582        H  0.76188633  0.85274243  0.86829910     0.33700
H583        H  0.89497213  0.72895811  0.77502294     0.25500
H584        H  0.69432681  0.71838703  0.84102899     0.31400
H585        H  0.64116803  0.86017721  0.87401237     0.37300
H586        H  0.92551459  0.82048245  0.65554627     0.31800
H587        H  0.84994977  0.90902919  0.63006790     0.30600
H588        H  0.73504286  0.96190449  0.63912975     0.32300
H589        H  0.65037622  0.93534493  0.75073558     0.31300
H590        H  0.82658646  0.74544403  0.64708818     0.35300
H591        H  0.64475758  0.73113047  0.68520067     0.28000
H592        H  0.84872344  0.94869676  0.88720239     0.32300
H593        H  0.67600013  0.93817248  0.86789777     0.35100
H594        H  0.82551920  0.95498673  0.62925276     0.27700
H595        H  0.64665001  0.76991997  0.64921414     0.40600
H596        H  0.82432651  0.70762601  0.88358481     0.30600
H597        H  0.87734315  0.70588161  0.73024281     0.38300
H598        H  0.69523018  0.96157993  0.76377122     0.30100
H599        H  0.72470662  0.71373801  0.88473873     0.30200
H600        H  0.89437118  0.95133331  0.86072206     0.30400
C601        C  0.56742039  0.81938204  0.73791070     0.79600
N602        N  0.52777453  0.82189123  0.76247422    -0.78700
C603        C  0.48772327  0.80675726  0.74172750     0.82100
N604        N  0.48922947  0.78909784  0.69933483    -0.78600
C605        C  0.52745445  0.78830707  0.67599413     0.82200
N606        N  0.56570065  0.80347090  0.69526545    -0.80300
C607        C  0.32499863  0.54111145  0.75717165     0.79600
N608        N  0.37027208  0.54133194  0.75366436    -0.78700
C609        C  0.39458718  0.57937474  0.74667962     0.82100
N610        N  0.37359050  0.61888143  0.74614789    -0.78600
C611        C  0.32856885  0.62106178  0.75237076     0.82200
N612        N  0.30320791  0.58160400  0.75716864    -0.80300
C613        C  0.56711993  0.38911216  0.77362884     0.79600
N614        N  0.52496291  0.36705416  0.77794254    -0.78700
C615        C  0.48551388  0.39037560  0.76741088     0.82100
N616        N  0.49020090  0.43246755  0.75057208    -0.78600
C617        C  0.53115253  0.45292900  0.74620320     0.82200
N618        N  0.56810279  0.43173176  0.76007271    -0.80300
C619        C  0.76177232  0.54831381  0.72694088     0.79600
N620        N  0.77369532  0.55692434  0.68323757    -0.78700
C621        C  0.77944058  0.59970398  0.66802113     0.82100
N622        N  0.77133795  0.63400751  0.69547584    -0.78600
C623        C  0.75659636  0.62882541  0.73780932     0.82200
N624        N  0.75274893  0.58515223  0.75518642    -0.80300
C625        C  0.57679882  0.34435585  0.27016062     0.79600
N626        N  0.53717643  0.36445047  0.25336874    -0.78700
C627        C  0.49450385  0.34422410  0.26213039     0.82100
N628        N  0.49352547  0.30556623  0.28603536    -0.78600
C629        C  0.53123728  0.28668138  0.30316359     0.82200
N630        N  0.57197282  0.30615920  0.29429167    -0.80300
C631        C  0.76965948  0.53629054  0.29103714     0.79600
N632        N  0.78823936  0.57697467  0.30793979    -0.78700
C633        C  0.77898931  0.61733327  0.28542016     0.82100
N634        N  0.75375822  0.61514812  0.24664409    -0.78600
C635        C  0.73671063  0.57591575  0.22948806     0.82200
N636        N  0.74500857  0.53743566  0.25217843    -0.80300
C637        C  0.58546454  0.81024284  0.28061572     0.79600
N638        N  0.54690066  0.83529209  0.28966550    -0.78700
C639        C  0.50387848  0.81463011  0.28490564     0.82100
N640        N  0.50127631  0.77183430  0.27053778    -0.78600
C641        C  0.53756141  0.74686659  0.26408517     0.82200
N642        N  0.57923925  0.76595192  0.26999167    -0.80300
C643        C  0.28261967  0.53339334  0.29376526     0.79600
N644        N  0.28951018  0.53137693  0.33853328    -0.78700
C645        C  0.30705849  0.56625661  0.36144106     0.82100
N646        N  0.30734113  0.60723709  0.34252879    -0.78600
C647        C  0.29293619  0.61345397  0.29944224     0.82200
N648        N  0.28283900  0.57546828  0.27278827    -0.80300
C649        C  0.74435436  0.83393087  0.47196133     0.79600
N650        N  0.69988739  0.82566683  0.46618485    -0.78700
C651        C  0.67216641  0.81727194  0.50072557     0.82100
N652        N  0.68826085  0.82371292  0.54373004    -0.78600
C653        C  0.73196742  0.83696013  0.55237159     0.82200
N654        N  0.76152902  0.84028153  0.51589755    -0.80300
C655        C  0.80750375  0.36110122  0.48137279     0.79600
N656        N  0.84233532  0.39090418  0.48576640    -0.78700
C657        C  0.85414511  0.41031177  0.52585194     0.82100
N658        N  0.83437673  0.39438936  0.56382561    -0.78600
C659        C  0.79962191  0.36413287  0.56234859     0.82200
N660        N  0.78499897  0.34707316  0.52032488    -0.80300
C661        C  0.30195566  0.77697488  0.47526422     0.79600
N662        N  0.31387841  0.73388439  0.47853792    -0.78700
C663        C  0.31052247  0.71079174  0.51747846     0.82100
N664        N  0.29666380  0.73153097  0.55501464    -0.78600
C665        C  0.28450867  0.77488412  0.55443463     0.82200
N666        N  0.28704037  0.79867675  0.51392761    -0.80300
C667        C  0.30543240  0.34569373  0.47005496     0.79600
N668        N  0.27811680  0.35471099  0.50750998    -0.78700
C669        C  0.29635682  0.35176898  0.55153784     0.82100
N670        N  0.33952363  0.33887097  0.55637923    -0.78600
C671        C  0.36603279  0.32919396  0.52133863     0.82200
N672        N  0.34919167  0.33374979  0.47833855    -0.80300
O673        O  0.98124571  0.95736863  0.89764851    -0.87100
O674        O  0.16660999  0.93402656  0.04172268    -0.87200
O675        O  0.07652706  0.96712866  0.87419617    -0.88900
O676        O  0.06181331  0.87868618  0.99575567    -0.87700
O677        O  0.02202370  0.90175690  0.05678012    -0.87300
O678        O  0.11829717  0.02969189  0.85971734    -0.88600
O679        O  0.15920092  0.91953865  0.96761843    -0.87100
O680        O  0.04047998  0.91221024  0.89775394    -0.86700
Zr681      Zr  0.08665725  0.94730114  0.95502767     2.84300
O682        O  0.09418604  0.95722427  0.03402932    -1.08700
O683        O  0.06916062  0.02117053  0.96884418    -1.09400
C684        C  0.99812395  0.91790609  0.89986090     1.06000
C685        C  0.16478081  0.90595108  0.00786420     1.06000
C686        C  0.09102781  0.99771637  0.84703652     1.09000
C687        C  0.03788440  0.87107678  0.03151365     1.06700
H688        H  0.17301645  0.99448355  0.94773229     0.32300
O689        O  0.14501000  0.00274472  0.96148715    -1.29600
H690        H  0.99539759  0.93921740  0.98389721     0.32000
O691        O  0.01688318  0.96361893  0.98491384    -1.31300
O692        O  0.16521070  0.09364734  0.07160173    -0.87100
O693        O  0.93861110  0.07986612  0.95142491    -0.88600
O694        O  0.20195261  0.07609449  0.95018815    -0.87100
O695        O  0.06814197  0.98013381  0.13657907    -0.87200
O696        O  0.94442615  0.98687689  0.05269712    -0.86900
O697        O  0.08627166  0.09451922  0.86181664    -0.86700
O698        O  0.06526475  0.17045980  0.99777942    -0.87100
O699        O  0.01274710  0.09871140  0.10094451    -0.86500
O700        O  0.10955570  0.15440881  0.93708434    -0.87600
O701        O  0.00276252  0.02722149  0.12753568    -0.86800
O702        O  0.22071611  0.03394542  0.01303673    -0.87200
O703        O  0.01363579  0.06902297  0.87217766    -0.86900
O704        O  0.92454036  0.01331601  0.98224720    -0.86500
O705        O  0.14144253  0.00484322  0.12427901    -0.86900
O706        O  0.09793514  0.12292624  0.08783699    -0.87200
O707        O  0.97064621  0.11915330  0.01026051    -0.88600
Zr708      Zr  0.14826131  0.01608152  0.04254941     2.83100
Zr709      Zr  0.99546532  0.02586139  0.94218329     2.83500
Zr710      Zr  0.11945683  0.07104797  0.93142417     2.84100
Zr711      Zr  0.02568991  0.98187271  0.06263785     2.83400
Zr712      Zr  0.04812979  0.09965725  0.02847709     2.84200
O713        O  0.99725043  0.04144730  0.01996857    -1.09100
O714        O  0.12252939  0.08282533  0.00690618    -1.08600
C715        C  0.13949731  0.12763631  0.07955885     1.06000
C716        C  0.93739307  0.10946185  0.98261419     1.08600
C717        C  0.23067902  0.05835026  0.97868553     1.06200
C718        C  0.10779996  0.99504033  0.15040304     1.06500
C719        C  0.91603198  0.00324726  0.02386820     1.06100
C720        C  0.04473157  0.09100236  0.85000150     1.05700
C721        C  0.08517350  0.18113346  0.96121520     1.06100
C722        C  0.00180897  0.07032395  0.13192756     1.05600
H723        H  0.03252945  0.11467842  0.93600286     0.32300
O724        O  0.04468040  0.08840660  0.95031182    -1.30200
H725        H  0.08036085  0.04905694  0.09617075     0.32300
O726        O  0.07779633  0.03917964  0.06539705    -1.31600
O727        O  0.56316947  0.66283013  0.50241765    -0.87100
O728        O  0.64069505  0.44248766  0.57568381    -0.87200
O729        O  0.55931426  0.56459613  0.60267874    -0.88900
O730        O  0.68761057  0.56621062  0.49939831    -0.87700
O731        O  0.74141007  0.57749674  0.45263141    -0.87300
O732        O  0.50228911  0.51698079  0.57865461    -0.88600
O733        O  0.66226214  0.51265151  0.59619419    -0.87100
O734        O  0.60957261  0.63795746  0.55952589    -0.86700
Zr735      Zr  0.62047111  0.55905530  0.54656027     2.84300
O736        O  0.66034063  0.51484978  0.49609351    -1.08700
O737        O  0.54992437  0.56613602  0.51372252    -1.09400
C738        C  0.58179976  0.66615484  0.54198467     1.06000
C739        C  0.64349351  0.47502931  0.60544433     1.06000
C740        C  0.51938205  0.54614760  0.60615990     1.09000
C741        C  0.72787201  0.58106863  0.49292542     1.06700
H742        H  0.57202452  0.47652358  0.56238090     0.32300
O743        O  0.58180106  0.49035761  0.53425964    -1.29600
H744        H  0.64174890  0.62390630  0.48439036     0.32000
O745        O  0.62919202  0.59452159  0.47724105    -1.31300
O746        O  0.60784097  0.37753856  0.44466665    -0.87100
O747        O  0.53997455  0.56825030  0.37592335    -0.88600
O748        O  0.50591748  0.41997851  0.52645469    -0.87100
O749        O  0.72958413  0.49585958  0.42948374    -0.87200
O750        O  0.67483222  0.63067273  0.41260945    -0.86900
O751        O  0.45413264  0.55377774  0.50501264    -0.86700
O752        O  0.48254164  0.46149625  0.38318401    -0.87100
O753        O  0.60669010  0.49675413  0.31691096    -0.86500
O754        O  0.46249409  0.45276668  0.45559744    -0.87600
O755        O  0.66039270  0.54782710  0.34120491    -0.86800
O756        O  0.57378502  0.38520285  0.51971715    -0.87200
O757        O  0.48243921  0.61862304  0.47334001    -0.86900
O758        O  0.60328559  0.64710351  0.39531014    -0.86500
O759        O  0.70970467  0.44875784  0.48721699    -0.86900
O760        O  0.56515683  0.40477336  0.38541796    -0.87200
O761        O  0.53100561  0.53001791  0.31700112    -0.88600
Zr762      Zr  0.62665320  0.44356259  0.49099829     2.83100
Zr763      Zr  0.55741530  0.60387593  0.44605836     2.83500
Zr764      Zr  0.51239731  0.49798186  0.50144400     2.84100
Zr765      Zr  0.66948398  0.54896049  0.42328049     2.83400
Zr766      Zr  0.56090359  0.48692748  0.38333315     2.84200
O767        O  0.59690204  0.55785513  0.39655082    -1.09100
O768        O  0.55687708  0.45530844  0.45536109    -1.08600
C769        C  0.58029084  0.37256560  0.41043171     1.06000
C770        C  0.52959389  0.56889803  0.33450791     1.08600
C771        C  0.53103886  0.38516307  0.52861454     1.06200
C772        C  0.73895084  0.47319401  0.46527672     1.06500
C773        C  0.64258586  0.65884325  0.40938101     1.06100
C774        C  0.45242645  0.59578296  0.49499456     1.05700
C775        C  0.45414658  0.46559453  0.41543530     1.06100
C776        C  0.63564605  0.52876259  0.31008482     1.05600
H777        H  0.48821815  0.54240702  0.42368886     0.32300
O778        O  0.51865388  0.53532463  0.43257871    -1.30200
H779        H  0.65100276  0.45874554  0.39602257     0.32300
O780        O  0.63388564  0.47665105  0.41635810    -1.31600
C781        C  0.43379290  0.33329773  0.57386594    -0.12800
C782        C  0.41479864  0.32084779  0.53134738     0.04200
C783        C  0.44463559  0.30216658  0.50001498    -0.08100
C784        C  0.49080999  0.31584566  0.50302056    -0.08900
C785        C  0.50687398  0.34215976  0.53947199    -0.03400
C786        C  0.48087113  0.33973479  0.57877189     0.03400
N787        N  0.50264982  0.33611549  0.62246513     0.65900
H788        H  0.41259001  0.33740250  0.60305104     0.14800
H789        H  0.51427079  0.30635715  0.47752085     0.14500
N790        N  0.43041665  0.26588728  0.47027644     0.73600
O791        O  0.48370174  0.31310332  0.65304464    -0.39900
O792        O  0.54434705  0.34540805  0.62677113    -0.39800
O793        O  0.45982087  0.24035617  0.45473034    -0.40500
O794        O  0.38968035  0.25222227  0.46908199    -0.40600
C795        C  0.36980918  0.66934990  0.55408830    -0.12800
C796        C  0.33528613  0.66956979  0.52129302     0.04200
C797        C  0.33683998  0.64053373  0.48394875    -0.08100
C798        C  0.37570460  0.61664983  0.47681505    -0.08900
C799        C  0.41188448  0.61927013  0.50711580    -0.03400
C800        C  0.40903844  0.64606250  0.54632139     0.03400
N801        N  0.44744386  0.65682393  0.57416194     0.65900
H802        H  0.36971384  0.69281039  0.58218329     0.14800
H803        H  0.38017093  0.59993004  0.44530142     0.14500
N804        N  0.30198786  0.63976474  0.44999124     0.73600
O805        O  0.44799991  0.64252369  0.61432069    -0.39900
O806        O  0.46710312  0.69385561  0.56655918    -0.39800
O807        O  0.30624764  0.66439428  0.41547356    -0.40500
O808        O  0.27333640  0.60769270  0.44927234    -0.40600
C809        C  0.83540606  0.48212828  0.55154825    -0.12800
C810        C  0.86588067  0.45944301  0.52468581     0.04200
C811        C  0.86684987  0.47694522  0.48046728    -0.08100
C812        C  0.82431782  0.48239186  0.45837322    -0.08900
C813        C  0.78495030  0.47909700  0.48539631    -0.03400
C814        C  0.79129748  0.48392384  0.53336809     0.03400
N815        N  0.75461674  0.48307200  0.56421344     0.65900
H816        H  0.83982595  0.48160884  0.58812722     0.14800
H817        H  0.82201927  0.48578505  0.42182874     0.14500
N818        N  0.90840964  0.47774508  0.45665024     0.73600
O819        O  0.75191797  0.51460554  0.59237361    -0.39900
O820        O  0.73719754  0.44550768  0.57441210    -0.39800
O821        O  0.93657184  0.50910183  0.46565817    -0.40500
O822        O  0.92307427  0.44125428  0.44193549    -0.40600
C823        C  0.66673424  0.73858678  0.50472913    -0.12800
C824        C  0.64404243  0.77726369  0.49101118     0.04200
C825        C  0.61676247  0.77454718  0.45079768    -0.08100
C826        C  0.61321111  0.73377614  0.42755809    -0.08900
C827        C  0.64588106  0.70114346  0.43516524    -0.03400
C828        C  0.67723875  0.70753843  0.47126509     0.03400
N829        N  0.72320677  0.69269040  0.46850907     0.65900
H830        H  0.68862818  0.74035392  0.53455044     0.14800
H831        H  0.59036654  0.73076960  0.39853737     0.14500
N832        N  0.59985224  0.81342862  0.42829507     0.73600
O833        O  0.74985698  0.69856717  0.50197250    -0.39900
O834        O  0.74059565  0.68781605  0.43002931    -0.39800
O835        O  0.62561992  0.83399678  0.40115690    -0.40500
O836        O  0.55776144  0.81595697  0.42165066    -0.40600
C837        C  0.42081147  0.52437905  0.37031430    -0.12800
C838        C  0.41663707  0.49563826  0.40746963     0.04200
C839        C  0.37815311  0.49764315  0.43497441    -0.08100
C840        C  0.34312753  0.52537337  0.42219630    -0.08900
C841        C  0.34744921  0.55304229  0.38420715    -0.03400
C842        C  0.38726789  0.55294894  0.35839487     0.03400
N843        N  0.39080594  0.57430615  0.31499721     0.65900
H844        H  0.44960838  0.52336724  0.34831866     0.14800
H845        H  0.31163245  0.52369911  0.44051156     0.14500
N846        N  0.37219229  0.46996782  0.47381617     0.73600
O847        O  0.41327928  0.61062069  0.31205681    -0.39900
O848        O  0.38546288  0.55054801  0.27975481    -0.39800
O849        O  0.37139132  0.48874974  0.51206357    -0.40500
O850        O  0.35146607  0.43286843  0.46875901    -0.40600
C851        C  0.51597982  0.69257555  0.31955615    -0.12800
C852        C  0.53045590  0.69967287  0.27575449     0.04200
C853        C  0.53586777  0.66305097  0.24669041    -0.08100
C854        C  0.53227271  0.61886122  0.26455759    -0.08900
C855        C  0.52163624  0.61212311  0.31088902    -0.03400
C856        C  0.51071051  0.65012479  0.33713085     0.03400
N857        N  0.49555381  0.64771080  0.38273404     0.65900
H858        H  0.50940630  0.72099876  0.34136052     0.14800
H859        H  0.54026312  0.59055710  0.24334564     0.14500
N860        N  0.54663507  0.67097795  0.20029086     0.73600
O861        O  0.51745327  0.67083354  0.41189441    -0.39900
O862        O  0.45384176  0.64111908  0.38886965    -0.39800
O863        O  0.51506535  0.68156243  0.17341645    -0.40500
O864        O  0.58661455  0.68283028  0.19073283    -0.40600
C865        C  0.66621382  0.60764239  0.21526332    -0.12800
C866        C  0.69617795  0.57679045  0.19833834     0.04200
C867        C  0.67480952  0.53469573  0.19132630    -0.08100
C868        C  0.64904687  0.51720996  0.22748842    -0.08900
C869        C  0.64051195  0.54661232  0.26386531    -0.03400
C870        C  0.64549623  0.59398409  0.25569681     0.03400
N871        N  0.64433177  0.62672935  0.29112561     0.65900
H872        H  0.67434239  0.64302067  0.21096067     0.14800
H873        H  0.64125727  0.48157327  0.22959895     0.14500
N874        N  0.68766182  0.50764360  0.15418744     0.73600
O875        O  0.67774033  0.62916865  0.31813348    -0.39900
O876        O  0.62355302  0.66231977  0.28350466    -0.39800
O877        O  0.67029647  0.51537241  0.11573228    -0.40500
O878        O  0.72549458  0.48935981  0.15603695    -0.40600
C879        C  0.49663812  0.28103450  0.37375489    -0.12800
C880        C  0.52702859  0.26009266  0.34588747     0.04200
C881        C  0.56813477  0.25269101  0.36849274    -0.08100
C882        C  0.58785162  0.28918885  0.39349255    -0.08900
C883        C  0.56083426  0.32720691  0.40029457    -0.03400
C884        C  0.51310933  0.32113872  0.39328522     0.03400
N885        N  0.48298832  0.35751208  0.39404536     0.65900
H886        H  0.46111845  0.27868350  0.36474932     0.14800
H887        H  0.62310660  0.28923239  0.40370910     0.14500
N888        N  0.59163892  0.21293385  0.35856382     0.73600
O889        O  0.48000677  0.38013184  0.35813341    -0.39900
O890        O  0.44882437  0.35459602  0.41899252    -0.39800
O891        O  0.57875986  0.17729015  0.37807067    -0.40500
O892        O  0.60934386  0.20976052  0.32010890    -0.40600
C893        C  0.80883516  0.59270949  0.58919053    -0.12800
C894        C  0.77783516  0.60983822  0.61976478     0.04200
C895        C  0.74036861  0.63304983  0.60273032    -0.08100
C896        C  0.72665919  0.62633367  0.55882002    -0.08900
C897        C  0.75323201  0.60292765  0.52945246    -0.03400
C898        C  0.79804958  0.59281570  0.54240483     0.03400
N899        N  0.83241856  0.58606729  0.50936672     0.65900
H900        H  0.84036146  0.57932952  0.60163763     0.14800
H901        H  0.69452202  0.63921628  0.54757766     0.14500
N902        N  0.71712614  0.66548589  0.62811388     0.73600
O903        O  0.87006634  0.57074704  0.52157023    -0.39900
O904        O  0.82989528  0.60620351  0.47179359    -0.39800
O905        O  0.72716788  0.70604061  0.62016905    -0.40500
O906        O  0.67805122  0.65566856  0.64202616    -0.40600
C907        C  0.57819434  0.50885876  0.71097706    -0.12800
C908        C  0.54031361  0.48051527  0.70679773     0.04200
C909        C  0.53390450  0.45697811  0.66605974    -0.08100
C910        C  0.57160397  0.44808721  0.63972121    -0.08900
C911        C  0.61128014  0.47483079  0.64407681    -0.03400
C912        C  0.61243524  0.50797762  0.67895514     0.03400
N913        N  0.64726704  0.54132011  0.68340789     0.65900
H914        H  0.58269854  0.52927685  0.74126103     0.14800
H915        H  0.56779188  0.42442276  0.61214658     0.14500
N916        N  0.48919527  0.44327798  0.65151614     0.73600
O917        O  0.64089296  0.57820213  0.66384149    -0.39900
O918        O  0.66961650  0.54186077  0.72008234    -0.39800
O919        O  0.45578684  0.45733982  0.67278991    -0.40500
O920        O  0.48249989  0.42859675  0.61191203    -0.40600
C921        C  0.41281915  0.56004925  0.67187320    -0.12800
C922        C  0.42920993  0.57467533  0.71352234     0.04200
C923        C  0.47519484  0.58341043  0.72086299    -0.08100
C924        C  0.50504480  0.57743231  0.68456747    -0.08900
C925        C  0.48876922  0.55857780  0.64308294    -0.03400
C926        C  0.44124832  0.55072417  0.63729351     0.03400
N927        N  0.41975454  0.53409753  0.59663084     0.65900
H928        H  0.37672511  0.55418364  0.66638693     0.14800
H929        H  0.54063825  0.58547222  0.68936280     0.14500
N930        N  0.49130836  0.59438559  0.76555396     0.73600
O931        O  0.41667704  0.49219724  0.59130823    -0.39900
O932        O  0.38935807  0.55742646  0.57870107    -0.39800
O933        O  0.48341084  0.63268175  0.78137000    -0.40500
O934        O  0.49726785  0.56258810  0.79306003    -0.40600
C935        C  0.53555887  0.77238294  0.59527729    -0.12800
C936        C  0.53200941  0.75699818  0.63949223     0.04200
C937        C  0.54312909  0.71311577  0.65059181    -0.08100
C938        C  0.56209441  0.68639131  0.61827962    -0.08900
C939        C  0.56595073  0.70073527  0.57309740    -0.03400
C940        C  0.54850428  0.74330645  0.56071142     0.03400
N941        N  0.53779451  0.75597685  0.51494840     0.65900
H942        H  0.52561266  0.80629129  0.58753394     0.14800
H943        H  0.57097043  0.65275965  0.62836562     0.14500
N944        N  0.53387929  0.69480541  0.69433254     0.73600
O945        O  0.51322641  0.73001443  0.49072795    -0.39900
O946        O  0.53785949  0.79725147  0.50559767    -0.39800
O947        O  0.49331639  0.68577133  0.70414495    -0.40500
O948        O  0.56521813  0.67716057  0.71707928    -0.40600
C949        C  0.13631547  0.24994142  0.04708429    -0.12800
C950        C  0.17076097  0.25119163  0.01549096     0.04200
C951        C  0.19453022  0.21162669  0.00610013    -0.08100
C952        C  0.18650688  0.17356457  0.03131281    -0.08900
C953        C  0.15340915  0.17229204  0.06422536    -0.03400
C954        C  0.12721202  0.21102131  0.07159037     0.03400
N955        N  0.09106460  0.21196722  0.10315838     0.65900
H956        H  0.11883643  0.28035793  0.05531054     0.14800
H957        H  0.20593139  0.14425944  0.02371433     0.14500
N958        N  0.23077017  0.21025721  0.97477936     0.73600
O959        O  0.09772855  0.23198487  0.14049487    -0.39900
O960        O  0.05122887  0.20933423  0.08745574    -0.39800
O961        O  0.27061011  0.21550208  0.99009103    -0.40500
O962        O  0.22464005  0.18784686  0.93881882    -0.40600
C963        C  0.12819406  0.07154584  0.25205020    -0.12800
C964        C  0.15376379  0.04281384  0.27771172     0.04200
C965        C  0.13971168  0.99729266  0.27554700    -0.08100
C966        C  0.12038627  0.98027620  0.23448579    -0.08900
C967        C  0.11345793  0.01021941  0.19830978    -0.03400
C968        C  0.11598731  0.05696341  0.20862701     0.03400
N969        N  0.11917145  0.09042744  0.17482063     0.65900
H970        H  0.13278523  0.10739305  0.25749385     0.14800
H971        H  0.11402325  0.94459178  0.23010851     0.14500
N972        N  0.14386474  0.96985855  0.31502079     0.73600
O973        O  0.08903840  0.11955699  0.17413152    -0.39900
O974        O  0.15893260  0.10295305  0.16518867    -0.39800
O975        O  0.17170125  0.98124047  0.34614324    -0.40500
O976        O  0.11224066  0.94224867  0.32403522    -0.40600
C977        C  0.99110709  0.16567117  0.20687845    -0.12800
C978        C  0.01416242  0.15197139  0.24554721     0.04200
C979        C  0.01889356  0.10557619  0.25372641    -0.08100
C980        C  0.00969690  0.07537557  0.21714620    -0.08900
C981        C  0.99165545  0.09146821  0.17577012    -0.03400
C982        C  0.97678819  0.13579356  0.17443878     0.03400
N983        N  0.94901145  0.15273165  0.13909751     0.65900
H984        H  0.98368801  0.20076278  0.20134394     0.14800
H985        H  0.01847931  0.04046526  0.22008106     0.14500
N986        N  0.03004765  0.08910487  0.29820163     0.73600
O987        O  0.90917712  0.16131597  0.14996370    -0.39900
O988        O  0.96775264  0.17752015  0.10994273    -0.39800
O989        O  0.01659588  0.10972568  0.33269772    -0.40500
O990        O  0.04432101  0.04985655  0.30314943    -0.40600
C991        C  0.85469627  0.08662297  0.08545170    -0.12800
C992        C  0.80921406  0.07421178  0.08241348     0.04200
C993        C  0.79731626  0.04121610  0.04896586    -0.08100
C994        C  0.83198411  0.01889091  0.02618092    -0.08900
C995        C  0.87606514  0.02281978  0.04389046    -0.03400
C996        C  0.88400567  0.05149786  0.08108583     0.03400
N997        N  0.90138468  0.03256997  0.12247120     0.65900
H998        H  0.86419476  0.11207445  0.10956914     0.14800
H999        H  0.82405961  0.99581304  0.99866124     0.14500
N1000       N  0.75145854  0.02952496  0.03831172     0.73600
O1001       O  0.90472053  0.05636110  0.15783717    -0.39900
O1002       O  0.89817147  0.99066632  0.12746237    -0.39800
O1003       O  0.73467289  0.04411142  0.00174216    -0.40500
O1004       O  0.73473174  0.99410536  0.05524297    -0.40600
C1005       C  0.98632385  0.76763836  0.08769913    -0.12800
C1006       C  0.02740409  0.75080166  0.10317283     0.04200
C1007       C  0.06143947  0.75410069  0.07101894    -0.08100
C1008       C  0.06057538  0.79040483  0.04007990    -0.08900
C1009       C  0.02865737  0.82422056  0.04677133    -0.03400
C1010       C  0.99060665  0.81246300  0.07399231     0.03400
N1011       N  0.96751685  0.84473713  0.10080512     0.65900
H1012       H  0.95625579  0.75770263  0.10612590     0.14800
H1013       H  0.08587608  0.79401455  0.01474735     0.14500
N1014       N  0.09186875  0.71813842  0.06686001     0.73600
O1015       O  0.92787025  0.83529933  0.11287084    -0.39900
O1016       O  0.99077764  0.87012614  0.12685967    -0.39800
O1017       O  0.11903992  0.71080393  0.09926660    -0.40500
O1018       O  0.08010836  0.68582287  0.04126953    -0.40600
C1019       C  0.29516978  0.10800289  0.96229621    -0.12800
C1020       C  0.27863097  0.06451063  0.96919313     0.04200
C1021       C  0.30413252  0.02850004  0.95332067    -0.08100
C1022       C  0.33622419  0.03727646  0.91985366    -0.08900
C1023       C  0.33644214  0.07986705  0.89944512    -0.03400
C1024       C  0.32693897  0.11573023  0.92862051     0.03400
N1025       N  0.34429291  0.16009391  0.92108038     0.65900
H1026       H  0.28070206  0.13548847  0.98009817     0.14800
H1027       H  0.35028629  0.00907607  0.90216625     0.14500
N1028       N  0.29419087  0.98318737  0.96601827     0.73600
O1029       O  0.31914296  0.18847008  0.90249356    -0.39900
O1030       O  0.37712662  0.17396441  0.94555396    -0.39800
O1031       O  0.27077631  0.95859181  0.93937628    -0.40500
O1032       O  0.31943594  0.96498300  0.99516126    -0.40600
C1033       C  0.01562495  0.99606333  0.73900508    -0.12800
C1034       C  0.04518453  0.97358263  0.71204526     0.04200
C1035       C  0.09011576  0.98974321  0.71767344    -0.08100
C1036       C  0.10609145  0.99802733  0.76269479    -0.08900
C1037       C  0.07460760  0.99689792  0.79852852    -0.03400
C1038       C  0.02754130  0.99814811  0.78522795     0.03400
N1039       N  0.99086480  0.99069296  0.81504382     0.65900
H1040       H  0.97994924  0.99387874  0.72994405     0.14800
H1041       H  0.14189364  0.00344009  0.76956494     0.14500
N1042       N  0.11924333  0.99269544  0.67940275     0.73600
O1043       O  0.96386288  0.02214050  0.82061277    -0.39900
O1044       O  0.97370977  0.95162645  0.81397156    -0.39800
O1045       O  0.11049802  0.96903242  0.64463687    -0.40500
O1046       O  0.14651164  0.02572240  0.67613318    -0.40600
C1047       C  0.10567708  0.25570309  0.92819199    -0.12800
C1048       C  0.07297992  0.22547160  0.94371873     0.04200
C1049       C  0.02704732  0.23835095  0.94225492    -0.08100
C1050       C  0.01422603  0.27538428  0.91699883    -0.08900
C1051       C  0.04678451  0.30089881  0.89465691    -0.03400
C1052       C  0.09251833  0.29570043  0.90798302     0.03400
N1053       N  0.12569259  0.33020210  0.90021970     0.65900
H1054       H  0.14109201  0.24869562  0.93202723     0.14800
H1055       H  0.97855340  0.28038613  0.91035117     0.14500
N1056       N  0.99205600  0.21281318  0.96312899     0.73600
O1057       O  0.13400027  0.35815344  0.93161553    -0.39900
O1058       O  0.15506691  0.32447303  0.87041358    -0.39800
O1059       O  0.97617115  0.22828789  0.99919678    -0.40500
O1060       O  0.96686530  0.18848795  0.93794931    -0.40600
C1061       C  0.99954713  0.14997542  0.82555763    -0.12800
C1062       C  0.02993065  0.11864589  0.81204163     0.04200
C1063       C  0.02338946  0.09978188  0.76884332    -0.08100
C1064       C  0.97866286  0.09411208  0.75204946    -0.08900
C1065       C  0.94351365  0.11288698  0.77643154    -0.03400
C1066       C  0.95558038  0.14633321  0.80916169     0.03400
N1067       N  0.92399507  0.17489377  0.82913457     0.65900
H1068       H  0.00664234  0.17002749  0.85570446     0.14800
H1069       H  0.97149330  0.07591041  0.72085838     0.14500
N1070       N  0.06148967  0.09526823  0.73989622     0.73600
O1071       O  0.90792102  0.16357919  0.86678709    -0.39900
O1072       O  0.92855394  0.21599916  0.82064450    -0.39800
O1073       O  0.05696087  0.10307179  0.69800257    -0.40500
O1074       O  0.10087064  0.09565441  0.75705811    -0.40600
C1075       C  0.17401615  0.78853031  0.05712202    -0.12800
C1076       C  0.19238398  0.77118026  0.01731963     0.04200
C1077       C  0.16579355  0.78198689  0.97958810    -0.08100
C1078       C  0.15573099  0.82789263  0.97490454    -0.08900
C1079       C  0.16176959  0.85636135  0.01369769    -0.03400
C1080       C  0.16295416  0.83427965  0.05619246     0.03400
N1081       N  0.15393645  0.85641031  0.09753172     0.65900
H1082       H  0.18078697  0.77258523  0.08941868     0.14800
H1083       H  0.14488384  0.84066493  0.94229447     0.14500
N1084       N  0.15652137  0.74943704  0.94488067     0.73600
O1085       O  0.11359910  0.86504449  0.10674131    -0.39900
O1086       O  0.18172326  0.85159642  0.12960440    -0.39800
O1087       O  0.18186011  0.71622630  0.94134171    -0.40500
O1088       O  0.11781293  0.74745000  0.92641126    -0.40600
C1089       C  0.89722304  0.16675946  0.02230760    -0.12800
C1090       C  0.89522990  0.13340658  0.98931107     0.01800
C1091       C  0.85334055  0.12394777  0.96655181    -0.08100
C1092       C  0.81493724  0.14681847  0.97955959    -0.08900
C1093       C  0.81809927  0.18009033  0.01296277    -0.03400
C1094       C  0.86038705  0.19106504  0.03280964     0.03400
N1095       N  0.86770369  0.22870240  0.06195292     0.65900
H1096       H  0.92824163  0.17563033  0.03975373     0.14800
H1097       H  0.78317512  0.14059026  0.96153630     0.14500
N1098       N  0.84884431  0.09385382  0.92887179     0.73600
O1099       O  0.86470565  0.22224075  0.10394464    -0.39900
O1100       O  0.88975773  0.26256556  0.04776525    -0.39800
O1101       O  0.83151416  0.05547103  0.93554839    -0.40500
O1102       O  0.84425009  0.11046510  0.88982646    -0.40600
C1103       C  0.93493129  0.89613000  0.94641855    -0.12800
C1104       C  0.96983887  0.88162755  0.91933022     0.04200
C1105       C  0.98360117  0.83672698  0.92347214    -0.08100
C1106       C  0.96376259  0.80875803  0.95623070    -0.08900
C1107       C  0.93225307  0.82559626  0.98658833    -0.03400
C1108       C  0.91936440  0.87080283  0.98204786     0.03400
N1109       N  0.88786211  0.89130617  0.01141570     0.65900
H1110       H  0.92384770  0.93040079  0.94485634     0.14800
H1111       H  0.97125247  0.77335704  0.95660479     0.14500
N1112       N  0.01515114  0.81805588  0.89316024     0.73600
O1113       O  0.90088538  0.90311096  0.05065557    -0.39900
O1114       O  0.85274460  0.90833145  0.99459416    -0.39800
O1115       O  0.05447434  0.81063715  0.90784393    -0.40500
O1116       O  0.00006809  0.79594442  0.85941216    -0.40600
loop_ 
_geom_bond_atom_site_label_1 
_geom_bond_atom_site_label_2 
_geom_bond_distance 
_geom_bond_site_symmetry_2 
_ccdc_geom_bond_type 
C1            N2   1.358       .  A
C1            N6   1.392       .  A
C1          C301   1.519       .  S
N2            C3   1.356       .  A
C3            N4   1.337   1_554  A
C3         C1107   1.457   1_554  S
N4            C5   1.339       .  A
C5            N6   1.390   1_556  A
C5          C559   1.492       .  S
C7            N8   1.401       .  A
C7           N12   1.347       .  A
C7          C222   1.523       .  S
N8            C9   1.401   1_554  A
C9           N10   1.343       .  A
C9          C493   1.516       .  S
N10          C11   1.337   1_556  A
C11          N12   1.343       .  A
C11        C1093   1.446       .  S
C13          N14   1.392       .  A
C13          N18   1.341       .  A
C13         C169   1.495       .  S
N14          C15   1.392   1_554  A
C15          N16   1.354       .  A
C15         C427   1.515       .  S
N16          C17   1.357   1_556  A
C17          N18   1.343       .  A
C17        C1076   1.493       .  S
C19          N20   1.336       .  A
C19          N24   1.395       .  A
C19         C491   1.512       .  S
N20          C21   1.333       .  A
C21          N22   1.366       .  A
C21        C1065   1.475       .  S
N22          C23   1.372       .  A
C23          N24   1.402       .  A
C23         C558   1.544   1_545  S
C25          N26   1.362       .  A
C25          N30   1.414   1_655  A
C25         C492   1.548       .  S
N26          C27   1.354   1_655  A
C27          N28   1.333       .  A
C27        C1051   1.474       .  S
N28          C29   1.340       .  A
C29          N30   1.406       .  A
C29         C361   1.544       .  S
C31          N32   1.360       .  A
C31          N36   1.389   1_655  A
C31         C557   1.511       .  S
N32          C33   1.362   1_655  A
C33          N34   1.339       .  A
C33        C1034   1.490       .  S
N34          C35   1.339       .  A
C35          N36   1.386       .  A
C35         C426   1.483       .  S
C37          N38   1.358       .  A
C37          N42   1.388       .  A
C37         C359   1.505       .  S
N38          C39   1.354       .  A
C39          N40   1.354       .  A
C39        C1023   1.487       .  S
N40          C41   1.350       .  A
C41          N42   1.386       .  A
C41         C425   1.504   1_545  S
C43          N44   1.336       .  A
C43          N48   1.403       .  A
C43         C293   1.533   1_455  S
N44          C45   1.345       .  A
C45          N46   1.362       .  A
C45        C1006   1.496       .  S
N46          C47   1.370       .  A
C47          N48   1.408       .  A
C47         C176   1.548       .  S
C49          N50   1.405       .  A
C49          N54   1.361       .  A
C49         C221   1.559       .  S
N50          C51   1.405       .  A
C51          N52   1.355       .  A
C51         C308   1.547   1_545  S
N52          C53   1.356       .  A
C53          N54   1.366       .  A
C53         C992   1.481       .  S
C55          N56   1.342       .  A
C55          N60   1.402   1_655  A
C55         C223   1.533       .  S
N56          C57   1.348   1_655  A
C57          N58   1.363       .  A
C57         C978   1.462       .  S
N58          C59   1.364       .  A
C59          N60   1.404       .  A
C59         C104   1.551       .  S
Zr61         O62   2.384       .  S
Zr61         O63   2.547       .  S
Zr61         O64   2.598       .  S
Zr61         O67   2.553       .  S
Zr61         O69   2.380       .  S
Zr61         O70   2.399       .  S
Zr61         O71   2.423       .  S
Zr61         O72   2.416       .  S
O62         H118   0.989       .  S
O62         H126   0.986       .  S
O63          C83   1.313       .  A
O64          C85   1.318       .  A
O65         Zr75   2.514       .  S
O65          C84   1.298       .  A
O66         Zr74   2.511       .  S
O66          C85   1.297       .  A
O67          C84   1.312       .  A
O68         Zr76   2.415       .  S
O68          C83   1.271       .  A
O69         Zr74   2.413       .  S
O69         Zr76   2.413       .  S
O70         Zr75   2.406       .  S
O70         Zr76   2.383       .  S
O70         H105   0.966       .  S
O71         Zr74   2.403       .  S
O71         Zr91   2.381       .  S
O71         H108   0.960       .  S
O72         Zr75   2.403       .  S
O72         Zr91   2.400       .  S
Zr73         O98   2.423       .  S
Zr73         O92   2.541       .  S
Zr73        O100   2.567       .  S
Zr73         O88   2.563       .  S
Zr73         O79   2.427       .  S
Zr73         O80   2.435       .  S
Zr73         O81   2.395       .  S
Zr73         O82   2.390       .  S
Zr74         O93   2.435       .  S
Zr74         O86   2.435       .  S
Zr74         O87   2.478       .  S
Zr74         O80   2.422       .  S
Zr74         O81   2.441       .  S
Zr75         O77   2.435       .  S
Zr75         O99   2.442       .  S
Zr75        O101   2.498       .  S
Zr75         O79   2.413       .  S
Zr75         O82   2.420       .  S
Zr76        O102   2.436       .  S
Zr76        O103   2.437       .  S
Zr76         O78   2.439       .  S
Zr76         O79   2.410       .  S
Zr76         O80   2.365       .  S
O77         H114   0.990       .  S
O78         H109   0.990       .  S
O78         H123   0.990       .  S
O80         H106   0.961       .  S
O81         Zr91   2.397       .  S
O82         Zr91   2.377       .  S
O82         H107   0.966       .  S
C83         C643   1.510       .  S
C84         C667   1.552       .  S
C85         C627   1.555       .  S
O86         H122   0.990       .  S
O87          C89   1.287       .  A
O88          C89   1.320       .  A
C89         C331   1.528       .  S
O90         Zr91   2.434       .  S
O90         H119   0.990       .  S
Zr91         O94   2.436       .  S
Zr91         O95   2.438       .  S
Zr91         O96   2.429       .  S
O92          C97   1.304       .  A
O93         H110   0.990       .  S
O93         H125   0.990       .  S
O94         H111   0.990       .  S
O95         H115   0.990       .  S
O95         H124   0.990       .  S
O96          C97   1.277       .  A
C97         C127   1.516       .  S
O98         H117   0.990       .  S
O98         H121   0.990       .  S
O99         H113   0.990       .  S
O99         H120   0.990       .  S
O100        C104   1.314       .  A
O101        C104   1.296       .  A
O102        H112   0.990       .  S
O103        H116   0.990       .  S
C127        N128   1.359       .  A
C127        N132   1.394       .  A
N128        C129   1.359       .  A
C129        N130   1.342       .  A
C129        C964   1.486       .  S
N130        C131   1.349       .  A
C131        N132   1.389       .  A
C131        C161   1.505   1_545  S
Zr133       O134   2.434       .  S
Zr133       O135   2.524       .  S
Zr133       O136   2.546       .  S
Zr133       O139   2.538       .  S
Zr133       O141   2.391       .  S
Zr133       O142   2.384       .  S
Zr133       O143   2.419       .  S
Zr133       O144   2.421       .  S
O134        H190   0.990       .  S
O134        H198   0.990       .  S
O135        C155   1.306       .  A
O136        C157   1.314       .  A
O137       Zr147   2.455       .  S
O137        C156   1.284       .  A
O138       Zr146   2.524       .  S
O138        C157   1.297       .  A
O139        C156   1.310       .  A
O140       Zr148   2.417       .  S
O140        C155   1.272       .  A
O141       Zr146   2.432       .  S
O141       Zr148   2.402       .  S
O142       Zr147   2.414       .  S
O142       Zr148   2.374       .  S
O142        H177   0.966       .  S
O143       Zr146   2.410       .  S
O143       Zr163   2.356       .  S
O143        H180   0.958       .  S
O144       Zr147   2.406       .  S
O144       Zr163   2.396       .  S
Zr145       O170   2.444       .  S
Zr145       O164   2.549       .  S
Zr145       O172   2.594       .  S
Zr145       O160   2.486       .  S
Zr145       O151   2.415       .  S
Zr145       O152   2.434       .  S
Zr145       O153   2.393       .  S
Zr145       O154   2.395       .  S
Zr146       O165   2.440       .  S
Zr146       O158   2.438       .  S
Zr146       O159   2.502       .  S
Zr146       O152   2.427       .  S
Zr146       O153   2.414       .  S
Zr147       O149   2.438       .  S
Zr147       O171   2.438       .  S
Zr147       O173   2.466       .  S
Zr147       O151   2.398       .  S
Zr147       O154   2.413       .  S
Zr148       O174   2.444       .  S
Zr148       O175   2.419       .  S
Zr148       O150   2.443       .  S
Zr148       O151   2.411       .  S
Zr148       O152   2.386       .  S
O149        H186   0.989       .  S
O150        H181   0.990       .  S
O150        H195   0.990       .  S
O152        H178   0.961       .  S
O153       Zr163   2.392       .  S
O154       Zr163   2.392       .  S
O154        H179   0.965       .  S
C155        C661   1.505       .  S
C156        C647   1.517       .  S
C157        C639   1.537       .  S
O158        H194   0.990       .  S
O159        C161   1.296       .  A
O160        C161   1.298       .  A
O162       Zr163   2.443       .  S
O162        H191   0.990       .  S
Zr163       O166   2.443       .  S
Zr163       O167   2.437       .  S
Zr163       O168   2.411       .  S
O164        C169   1.304       .  A
O165        H182   0.989       .  S
O165        H197   0.990       .  S
O166        H183   0.990       .  S
O167        H187   0.990       .  S
O167        H196   0.990       .  S
O168        C169   1.270       .  A
O170        H189   0.990       .  S
O170        H193   0.988       .  S
O171        H185   0.990       .  S
O171        H192   0.990       .  S
O172        C176   1.312       .  A
O173        C176   1.290       .  A
O174        H184   0.990       .  S
O175        H188   0.990       .  S
Zr199       O200   2.442       .  S
Zr199       O201   2.571       .  S
Zr199       O202   2.573       .  S
Zr199       O205   2.533       .  S
Zr199       O207   2.387       .  S
Zr199       O208   2.388       .  S
Zr199       O209   2.422       .  S
Zr199       O210   2.439       .  S
O200        H256   0.990       .  S
O200        H264   0.990       .  S
O201        C221   1.315       .  A
O202        C223   1.316       .  A
O203       Zr213   2.463       .  S
O203        C222   1.284       .  A
O204       Zr212   2.475       .  S
O204        C223   1.289       .  A
O205        C222   1.309       .  A
O206       Zr214   2.488       .  S
O206        C221   1.291       .  A
O207       Zr212   2.416       .  S
O207       Zr214   2.382       .  S
O208       Zr213   2.423       .  S
O208       Zr214   2.374       .  S
O208        H243   0.965       .  S
O209       Zr212   2.391       .  S
O209       Zr229   2.382       .  S
O209        H246   0.964       .  S
O210       Zr213   2.415       .  S
O210       Zr229   2.422       .  S
Zr211       O236   2.421       .  S
Zr211       O230   2.592       .  S
Zr211       O238   2.582       .  S
Zr211       O226   2.564       .  S
Zr211       O217   2.429       .  S
Zr211       O218   2.450       .  S
Zr211       O219   2.397       .  S
Zr211       O220   2.399       .  S
Zr212       O231   2.431       .  S
Zr212       O224   2.435       .  S
Zr212       O225   2.452       .  S
Zr212       O218   2.410       .  S
Zr212       O219   2.407       .  S
Zr213       O215   2.428       .  S
Zr213       O237   2.440       .  S
Zr213       O239   2.486       .  S
Zr213       O217   2.401       .  S
Zr213       O220   2.413       .  S
Zr214       O240   2.431       .  S
Zr214       O241   2.432       .  S
Zr214       O216   2.438       .  S
Zr214       O217   2.431       .  S
Zr214       O218   2.409       .  S
O215        H252   0.990       .  S
O216        H247   0.990       .  S
O216        H261   0.990       .  S
O218        H244   0.964       .  S
O219       Zr229   2.377       .  S
O220       Zr229   2.402       .  S
O220        H245   0.966       .  S
O224        H260   0.989       .  S
O225        C227   1.288       .  A
O226        C227   1.307       .  A
C227        C655   1.517       .  S
O228       Zr229   2.436       .  S
O228        H257   0.990       .  S
Zr229       O232   2.438       .  S
Zr229       O233   2.425       .  S
Zr229       O234   2.442       .  S
O230        C235   1.317       .  A
O231        H248   0.989       .  S
O231        H263   0.990       .  S
O232        H249   0.990       .  S
O233        H253   0.990       .  S
O233        H262   0.990       .  S
O234        C235   1.275       .  A
C235        C631   1.536       .  S
O236        H255   0.990       .  S
O236        H259   0.988       .  S
O237        H251   0.990       .  S
O237        H258   0.990       .  S
O238        C242   1.318       .  A
O239        C242   1.290       .  A
O240        H250   0.990       .  S
O241        H254   0.990       .  S
C242        C625   1.553       .  S
Zr265       O266   2.385       .  S
Zr265       O267   2.523       .  S
Zr265       O268   2.566       .  S
Zr265       O271   2.519       .  S
Zr265       O273   2.383       .  S
Zr265       O274   2.396       .  S
Zr265       O275   2.409       .  S
Zr265       O276   2.410       .  S
O266        H322   0.987       .  S
O266        H330   0.985       .  S
O267        C287   1.307       .  A
O268        C289   1.312       .  A
O269       Zr279   2.539       .  S
O269        C288   1.301       .  A
O270       Zr278   2.510       .  S
O270        C289   1.297       .  A
O271        C288   1.303       .  A
O272       Zr280   2.442       .  S
O272        C287   1.278       .  A
O273       Zr278   2.417       .  S
O273       Zr280   2.406       .  S
O274       Zr279   2.405       .  S
O274       Zr280   2.390       .  S
O274        H309   0.965       .  S
O275       Zr278   2.399       .  S
O275       Zr295   2.391       .  S
O275        H312   0.961       .  S
O276       Zr279   2.391       .  S
O276       Zr295   2.383       .  S
Zr277       O302   2.428       .  S
Zr277       O296   2.566       .  S
Zr277       O304   2.572       .  S
Zr277       O292   2.588       .  S
Zr277       O283   2.433       .  S
Zr277       O284   2.431       .  S
Zr277       O285   2.390       .  S
Zr277       O286   2.407       .  S
Zr278       O297   2.438       .  S
Zr278       O290   2.436       .  S
Zr278       O291   2.478       .  S
Zr278       O284   2.420       .  S
Zr278       O285   2.419       .  S
Zr279       O281   2.434       .  S
Zr279       O303   2.437       .  S
Zr279       O305   2.485       .  S
Zr279       O283   2.420       .  S
Zr279       O286   2.426       .  S
Zr280       O306   2.436       .  S
Zr280       O307   2.443       .  S
Zr280       O282   2.439       .  S
Zr280       O283   2.408       .  S
Zr280       O284   2.392       .  S
O281        H318   0.990       .  S
O282        H313   0.990       .  S
O282        H327   0.990       .  S
O284        H310   0.961       .  S
O285       Zr295   2.402       .  S
O286       Zr295   2.381       .  S
O286        H311   0.966       .  S
C287        C649   1.514       .  S
C288        C637   1.549       .  S
C289        C633   1.545       .  S
O290        H326   0.990       .  S
O291        C293   1.292       .  A
O292        C293   1.314       .  A
O294       Zr295   2.439       .  S
O294        H323   0.990       .  S
Zr295       O298   2.437       .  S
Zr295       O299   2.437       .  S
Zr295       O300   2.408       .  S
O296        C301   1.312       .  A
O297        H314   0.990       .  S
O297        H329   0.990       .  S
O298        H315   0.990       .  S
O299        H319   0.990       .  S
O299        H328   0.990       .  S
O300        C301   1.274       .  A
O302        H321   0.990       .  S
O302        H325   0.989       .  S
O303        H317   0.990       .  S
O303        H324   0.990       .  S
O304        C308   1.317       .  A
O305        C308   1.293       .  A
O306        H316   0.990       .  S
O307        H320   0.990       .  S
C331        N332   1.340       .  A
C331        N336   1.404       .  A
N332        C333   1.333       .  A
C333        N334   1.339   1_554  A
C333        C950   1.443       .  S
N334        C335   1.352       .  A
C335        N336   1.407   1_556  A
C335        C360   1.527       .  S
Zr337       O338   2.433       .  S
Zr337       O339   2.518       .  S
Zr337       O340   2.518       .  S
Zr337       O343   2.515       .  S
Zr337       O345   2.384       .  S
Zr337       O346   2.385       .  S
Zr337       O347   2.428       .  S
Zr337       O348   2.416       .  S
O338        H394   0.986       .  S
O338        H402   0.990       .  S
O339        C359   1.298       .  A
O340        C361   1.307       .  A
O341       Zr351   2.490       .  S
O341        C360   1.289       .  A
O342       Zr350   2.540       .  S
O342        C361   1.299       .  A
O343        C360   1.308       .  A
O344       Zr352   2.438       .  S
O344        C359   1.278       .  A
O345       Zr350   2.441       .  S
O345       Zr352   2.400       .  S
O346       Zr351   2.412       .  S
O346       Zr352   2.374       .  S
O346        H381   0.965       .  S
O347       Zr350   2.418       .  S
O347       Zr367   2.390       .  S
O347        H384   0.961       .  S
O348       Zr351   2.414       .  S
O348       Zr367   2.407       .  S
Zr349       O374   2.427       .  S
Zr349       O368   2.498       .  S
Zr349       O376   2.528       .  S
Zr349       O364   2.523       .  S
Zr349       O355   2.419       .  S
Zr349       O356   2.429       .  S
Zr349       O357   2.388       .  S
Zr349       O358   2.385       .  S
Zr350       O369   2.436       .  S
Zr350       O362   2.435       .  S
Zr350       O363   2.533       .  S
Zr350       O356   2.428       .  S
Zr350       O357   2.430       .  S
Zr351       O353   2.435       .  S
Zr351       O375   2.436       .  S
Zr351       O377   2.492       .  S
Zr351       O355   2.409       .  S
Zr351       O358   2.413       .  S
Zr352       O378   2.437       .  S
Zr352       O379   2.437       .  S
Zr352       O354   2.437       .  S
Zr352       O355   2.420       .  S
Zr352       O356   2.375       .  S
O353        H390   0.990       .  S
O354        H385   0.990       .  S
O354        H399   0.990       .  S
O356        H382   0.960       .  S
O357       Zr367   2.395       .  S
O358       Zr367   2.387       .  S
O358        H383   0.966       .  S
O362        H398   0.990       .  S
O363        C365   1.300       .  A
O364        C365   1.304       .  A
C365        C669   1.537       .  S
O366       Zr367   2.438       .  S
O366        H395   0.990       .  S
Zr367       O370   2.439       .  S
Zr367       O371   2.439       .  S
Zr367       O372   2.429       .  S
O368        C373   1.299       .  A
O369        H386   0.990       .  S
O369        H401   0.990       .  S
O370        H387   0.990       .  S
O371        H391   0.990       .  S
O371        H400   0.990       .  S
O372        C373   1.276       .  A
C373        C607   1.498       .  S
O374        H393   0.988       .  S
O374        H397   0.990       .  S
O375        H389   0.990       .  S
O375        H396   0.990       .  S
O376        C380   1.307       .  A
O377        C380   1.292       .  A
O378        H388   0.990       .  S
O379        H392   0.990       .  S
C380        C615   1.536       .  S
Zr403       O404   2.433       .  S
Zr403       O405   2.522       .  S
Zr403       O406   2.543       .  S
Zr403       O409   2.517       .  S
Zr403       O411   2.380       .  S
Zr403       O412   2.410       .  S
Zr403       O413   2.429       .  S
Zr403       O414   2.418       .  S
O404        H460   0.990       .  S
O404        H468   0.989       .  S
O405        C425   1.301       .  A
O406        C427   1.310       .  A
O407       Zr417   2.442       .  S
O407        C426   1.286       .  A
O408       Zr416   2.479       .  S
O408        C427   1.290       .  A
O409        C426   1.303       .  A
O410       Zr418   2.427       .  S
O410        C425   1.275       .  A
O411       Zr416   2.421       .  S
O411       Zr418   2.402       .  S
O412       Zr417   2.424       .  S
O412       Zr418   2.370       .  S
O412        H447   0.966       .  S
O413       Zr416   2.424       .  S
O413       Zr433   2.394       .  S
O413        H450   0.961       .  S
O414       Zr417   2.394       .  S
O414       Zr433   2.375       .  S
Zr415       O440   2.442       .  S
Zr415       O434   2.505       .  S
Zr415       O442   2.448       .  S
Zr415       O430   2.427       .  S
Zr415       O421   2.403       .  S
Zr415       O422   2.424       .  S
Zr415       O423   2.363       .  S
Zr415       O424   2.368       .  S
Zr416       O435   2.439       .  S
Zr416       O428   2.434       .  S
Zr416       O429   2.507       .  S
Zr416       O422   2.412       .  S
Zr416       O423   2.419       .  S
Zr417       O419   2.437       .  S
Zr417       O441   2.436       .  S
Zr417       O443   2.499       .  S
Zr417       O421   2.378       .  S
Zr417       O424   2.400       .  S
Zr418       O444   2.436       .  S
Zr418       O445   2.436       .  S
Zr418       O420   2.439       .  S
Zr418       O421   2.388       .  S
Zr418       O422   2.397       .  S
O419        H456   0.990       .  S
O420        H451   0.991       .  S
O420        H465   0.990       .  S
O422        H448   0.963       .  S
O423       Zr433   2.403       .  S
O424       Zr433   2.377       .  S
O424        H449   0.965       .  S
O428        H464   0.990       .  S
O429        C431   1.292       .  A
O430        C431   1.287       .  A
C431        C603   1.504       .  S
O432       Zr433   2.442       .  S
O432        H461   0.990       .  S
Zr433       O436   2.437       .  S
Zr433       O437   2.434       .  S
Zr433       O438   2.411       .  S
O434        C439   1.300       .  A
O435        H452   0.990       .  S
O435        H467   0.990       .  S
O436        H453   0.990       .  S
O437        H457   0.990       .  S
O437        H466   0.989       .  S
O438        C439   1.274       .  A
C439        C611   1.493       .  S
O440        H459   0.991       .  S
O440        H463   0.990       .  S
O441        H455   0.990       .  S
O441        H462   0.989       .  S
O442        C446   1.290       .  A
O443        C446   1.294       .  A
O444        H454   0.990       .  S
O445        H458   0.990       .  S
C446        C665   1.499       .  S
Zr469       O470   2.441       .  S
Zr469       O471   2.531       .  S
Zr469       O472   2.517       .  S
Zr469       O475   2.548       .  S
Zr469       O477   2.391       .  S
Zr469       O478   2.382       .  S
Zr469       O479   2.428       .  S
Zr469       O480   2.404       .  S
O470        H526   0.991       .  S
O470        H534   0.990       .  S
O471        C491   1.309       .  A
O472        C493   1.304       .  A
O473       Zr483   2.486       .  S
O473        C492   1.288       .  A
O474       Zr482   2.479       .  S
O474        C493   1.288       .  A
O475        C492   1.312       .  A
O476       Zr484   2.446       .  S
O476        C491   1.280       .  A
O477       Zr482   2.414       .  S
O477       Zr484   2.395       .  S
O478       Zr483   2.392       .  S
O478       Zr484   2.394       .  S
O478        H513   0.966       .  S
O479       Zr482   2.405       .  S
O479       Zr499   2.403       .  S
O479        H516   0.964       .  S
O480       Zr483   2.393       .  S
O480       Zr499   2.410       .  S
Zr481       O506   2.444       .  S
Zr481       O500   2.589       .  S
Zr481       O508   2.572       .  S
Zr481       O496   2.563       .  S
Zr481       O487   2.423       .  S
Zr481       O488   2.440       .  S
Zr481       O489   2.391       .  S
Zr481       O490   2.399       .  S
Zr482       O501   2.434       .  S
Zr482       O494   2.438       .  S
Zr482       O495   2.457       .  S
Zr482       O488   2.419       .  S
Zr482       O489   2.422       .  S
Zr483       O485   2.437       .  S
Zr483       O507   2.438       .  S
Zr483       O509   2.429       .  S
Zr483       O487   2.403       .  S
Zr483       O490   2.427       .  S
Zr484       O510   2.438       .  S
Zr484       O511   2.441       .  S
Zr484       O486   2.438       .  S
Zr484       O487   2.396       .  S
Zr484       O488   2.400       .  S
O485        H522   0.990       .  S
O486        H517   0.990       .  S
O486        H531   0.990       .  S
O488        H514   0.964       .  S
O489       Zr499   2.385       .  S
O490       Zr499   2.383       .  S
O490        H515   0.966       .  S
O494        H530   0.990       .  S
O495        C497   1.283       .  A
O496        C497   1.317       .  A
C497        C613   1.521       .  S
O498       Zr499   2.435       .  S
O498        H527   0.990       .  S
Zr499       O502   2.435       .  S
Zr499       O503   2.439       .  S
Zr499       O504   2.456       .  S
O500        C505   1.319       .  A
O501        H518   0.990       .  S
O501        H533   0.990       .  S
O502        H519   0.990       .  S
O503        H523   0.990       .  S
O503        H532   0.990       .  S
O504        C505   1.283       .  A
C505        C619   1.551       .  S
O506        H525   0.989       .  S
O506        H529   0.989       .  S
O507        H521   0.990       .  S
O507        H528   0.990       .  S
O508        C512   1.311       .  A
O509        C512   1.279       .  A
O510        H520   0.990       .  S
O511        H524   0.990       .  S
C512        C659   1.510       .  S
Zr535       O536   2.428       .  S
Zr535       O537   2.550       .  S
Zr535       O538   2.588       .  S
Zr535       O541   2.555       .  S
Zr535       O543   2.394       .  S
Zr535       O544   2.399       .  S
Zr535       O545   2.418       .  S
Zr535       O546   2.420       .  S
O536        H592   0.990       .  S
O536        H600   0.990       .  S
O537        C557   1.307       .  A
O538        C559   1.321       .  A
O539       Zr549   2.495       .  S
O539        C558   1.296       .  A
O540       Zr548   2.406       .  S
O540        C559   1.277       .  A
O541        C558   1.310       .  A
O542       Zr550   2.415       .  S
O542        C557   1.275       .  A
O543       Zr548   2.431       .  S
O543       Zr550   2.393       .  S
O544       Zr549   2.410       .  S
O544       Zr550   2.378       .  S
O544        H579   0.966       .  S
O545       Zr548   2.432       .  S
O545       Zr565   2.368       .  S
O545        H582   0.962       .  S
O546       Zr549   2.411       .  S
O546       Zr565   2.400       .  S
Zr547       O572   2.439       .  S
Zr547       O566   2.477       .  S
Zr547       O574   2.504       .  S
Zr547       O562   2.553       .  S
Zr547       O553   2.418       .  S
Zr547       O554   2.408       .  S
Zr547       O555   2.362       .  S
Zr547       O556   2.401       .  S
Zr548       O567   2.437       .  S
Zr548       O560   2.437       .  S
Zr548       O561   2.493       .  S
Zr548       O554   2.395       .  S
Zr548       O555   2.393       .  S
Zr549       O551   2.435       .  S
Zr549       O573   2.437       .  S
Zr549       O575   2.512       .  S
Zr549       O553   2.396       .  S
Zr549       O556   2.410       .  S
Zr550       O576   2.437       .  S
Zr550       O577   2.438       .  S
Zr550       O552   2.440       .  S
Zr550       O553   2.400       .  S
Zr550       O554   2.379       .  S
O551        H588   0.990       .  S
O552        H583   0.990       .  S
O552        H597   0.990       .  S
O554        H580   0.961       .  S
O555       Zr565   2.407       .  S
O556       Zr565   2.393       .  S
O556        H581   0.966       .  S
O560        H596   0.990       .  S
O561        C563   1.291       .  A
O562        C563   1.315       .  A
C563        C623   1.530       .  S
O564       Zr565   2.438       .  S
O564        H593   0.990       .  S
Zr565       O568   2.439       .  S
Zr565       O569   2.438       .  S
Zr565       O570   2.414       .  S
O566        C571   1.295       .  A
O567        H584   0.990       .  S
O567        H599   0.990       .  S
O568        H585   0.990       .  S
O569        H589   0.990       .  S
O569        H598   0.990       .  S
O570        C571   1.270       .  A
C571        C601   1.486       .  S
O572        H591   0.990       .  S
O572        H595   0.990       .  S
O573        H587   0.990       .  S
O573        H594   0.990       .  S
O574        C578   1.302       .  A
O575        C578   1.298       .  A
O576        H586   0.990       .  S
O577        H590   0.990       .  S
C578        C653   1.527       .  S
C601        N602   1.391       .  A
C601        N606   1.343       .  A
N602        C603   1.390       .  A
C603        N604   1.357       .  A
N604        C605   1.333       .  A
C605        N606   1.327       .  A
C605        C936   1.434       .  S
C607        N608   1.345       .  A
C607        N612   1.383       .  A
N608        C609   1.345       .  A
C609        N610   1.346       .  A
C609        C922   1.436       .  S
N610        C611   1.351       .  A
C611        N612   1.388       .  A
C613        N614   1.403       .  A
C613        N618   1.332       .  A
N614        C615   1.405       .  A
C615        N616   1.355       .  A
N616        C617   1.350       .  A
C617        N618   1.336       .  A
C617        C908   1.449       .  S
C619        N620   1.363       .  A
C619        N624   1.411       .  A
N620        C621   1.360       .  A
C621        N622   1.332       .  A
C621        C894   1.454       .  S
N622        C623   1.336       .  A
C623        N624   1.402       .  A
C625        N626   1.413       .  A
C625        N630   1.349       .  A
N626        C627   1.413       .  A
C627        N628   1.351       .  A
N628        C629   1.354       .  A
C629        N630   1.354       .  A
C629        C880   1.494       .  S
C631        N632   1.406       .  A
C631        N636   1.349       .  A
N632        C633   1.406       .  A
C633        N634   1.356       .  A
N634        C635   1.356       .  A
C635        N636   1.355       .  A
C635        C866   1.500       .  S
C637        N638   1.409       .  A
C637        N642   1.364       .  A
N638        C639   1.405       .  A
C639        N640   1.344       .  A
N640        C641   1.338       .  A
C641        N642   1.353       .  A
C641        C852   1.460       .  S
C643        N644   1.333       .  A
C643        N648   1.399       .  A
N644        C645   1.329       .  A
C645        N646   1.343       .  A
C645        C841   1.426       .  S
N646        C647   1.348       .  A
C647        N648   1.401       .  A
C649        N650   1.341       .  A
C649        N654   1.395       .  A
N650        C651   1.337       .  A
C651        N652   1.359       .  A
C651        C824   1.462       .  S
N652        C653   1.363       .  A
C653        N654   1.398       .  A
C655        N656   1.348       .  A
C655        N660   1.395       .  A
N656        C657   1.352       .  A
C657        N658   1.351       .  A
C657        C810   1.497       .  S
N658        C659   1.350       .  A
C659        N660   1.397       .  A
C661        N662   1.344       .  A
C661        N666   1.393       .  A
N662        C663   1.342       .  A
C663        N664   1.342       .  A
C663        C796   1.451       .  S
N664        C665   1.351       .  A
C665        N666   1.391       .  A
C667        N668   1.408       .  A
C667        N672   1.370       .  A
N668        C669   1.401       .  A
C669        N670   1.349       .  A
N670        C671   1.342       .  A
C671        N672   1.363       .  A
C671        C782   1.496       .  S
O673       Zr709   2.450   1_565  S
O673        C684   1.291       .  A
O674       Zr708   2.520   1_565  S
O674        C685   1.301       .  A
O675       Zr681   2.470       .  S
O675        C686   1.284       .  A
O676       Zr681   2.474       .  S
O676        C687   1.295   1_556  A
O677       Zr711   2.395       .  S
O677        C687   1.282       .  A
O678       Zr710   2.445       .  S
O678        C686   1.284   1_545  A
O679       Zr681   2.345       .  S
O679        C685   1.263   1_556  A
O680       Zr681   2.379       .  S
O680        C684   1.272   1_455  A
Zr681       O682   2.353   1_556  S
Zr681       O683   2.313   1_565  S
Zr681       O691   2.320       .  S
Zr681       O689   2.365   1_565  S
O682       Zr708   2.355   1_565  S
O682       Zr711   2.342       .  S
O683       Zr709   2.314   1_455  S
O683       Zr710   2.362       .  S
C684       C1104   1.473       .  S
C685       C1079   1.489       .  S
C686       C1037   1.503       .  S
C687       C1009   1.488       .  S
H688        O689   0.966   1_565  S
O689       Zr708   2.421   1_556  S
O689       Zr710   2.359       .  S
H690        O691   0.954   1_655  S
O691       Zr709   2.339   1_465  S
O691       Zr711   2.363   1_556  S
O692       Zr708   2.501       .  S
O692        C715   1.306       .  A
O693       Zr709   2.377       .  S
O693        C716   1.275       .  A
O694       Zr710   2.495       .  S
O694        C717   1.308       .  A
O695       Zr711   2.499       .  S
O695        C718   1.303       .  A
O696       Zr711   2.426   1_655  S
O696        C719   1.291   1_565  A
O697       Zr710   2.374       .  S
O697        C720   1.274       .  A
O698       Zr712   2.344   1_556  S
O698        C721   1.273       .  A
O699       Zr712   2.393       .  S
O699        C722   1.285       .  A
O700       Zr710   2.516       .  S
O700        C721   1.306       .  A
O701       Zr711   2.455   1_545  S
O701        C722   1.293       .  A
O702       Zr708   2.374       .  S
O702        C717   1.281   1_554  A
O703       Zr709   2.491   1_455  S
O703        C720   1.300       .  A
O704       Zr709   2.444       .  S
O704        C719   1.290   1_556  A
O705       Zr708   2.443       .  S
O705        C718   1.295   1_545  A
O706       Zr712   2.362       .  S
O706        C715   1.262       .  A
O707       Zr712   2.432   1_655  S
O707        C716   1.294   1_554  A
Zr708       O714   2.388       .  S
Zr708       O726   2.322       .  S
Zr709       O713   2.338   1_556  S
Zr709       O724   2.346   1_655  S
Zr710       O714   2.252   1_556  S
Zr710       O724   2.360       .  S
Zr711       O713   2.344   1_465  S
Zr711       O726   2.272   1_565  S
Zr712       O713   2.279   1_455  S
Zr712       O714   2.367       .  S
Zr712       O726   2.294       .  S
Zr712       O724   2.328   1_554  S
C715        C953   1.458       .  S
C716       C1090   1.469       .  S
C717       C1020   1.457       .  S
C718        C967   1.488   1_565  S
C719        C995   1.464       .  S
C720       C1062   1.459       .  S
C721       C1048   1.471       .  S
C722        C981   1.476   1_455  S
H723        O724   0.965       .  S
H725        O726   0.955       .  S
O727       Zr763   2.418       .  S
O727        C738   1.285       .  A
O728       Zr762   2.524       .  S
O728        C739   1.308       .  A
O729       Zr735   2.479       .  S
O729        C740   1.296       .  A
O730       Zr735   2.447       .  S
O730        C741   1.277       .  A
O731       Zr765   2.419       .  S
O731        C741   1.264       .  A
O732       Zr764   2.369       .  S
O732        C740   1.278       .  A
O733       Zr735   2.371       .  S
O733        C739   1.270       .  A
O734       Zr735   2.414       .  S
O734        C738   1.293       .  A
Zr735       O736   2.339       .  S
Zr735       O737   2.302       .  S
Zr735       O745   2.316       .  S
Zr735       O743   2.345       .  S
O736       Zr762   2.328       .  S
O736       Zr765   2.391       .  S
O737       Zr763   2.301       .  S
O737       Zr764   2.316       .  S
C738        C939   1.470       .  S
C739        C911   1.496       .  S
C740        C925   1.479       .  S
C741        C897   1.447       .  S
H742        O743   0.971       .  S
O743       Zr762   2.341       .  S
O743       Zr764   2.273       .  S
H744        O745   0.965       .  S
O745       Zr763   2.325       .  S
O745       Zr765   2.436       .  S
O746       Zr762   2.442       .  S
O746        C769   1.293       .  A
O747       Zr763   2.367       .  S
O747        C770   1.254       .  A
O748       Zr764   2.444       .  S
O748        C771   1.293       .  A
O749       Zr765   2.416       .  S
O749        C772   1.284       .  A
O750       Zr765   2.458       .  S
O750        C773   1.290       .  A
O751       Zr764   2.430       .  S
O751        C774   1.289       .  A
O752       Zr766   2.421       .  S
O752        C775   1.286       .  A
O753       Zr766   2.411       .  S
O753        C776   1.284       .  A
O754       Zr764   2.378       .  S
O754        C775   1.267       .  A
O755       Zr765   2.429       .  S
O755        C776   1.287       .  A
O756       Zr762   2.469       .  S
O756        C771   1.296       .  A
O757       Zr763   2.422       .  S
O757        C774   1.283       .  A
O758       Zr763   2.391       .  S
O758        C773   1.269       .  A
O759       Zr762   2.463       .  S
O759        C772   1.297       .  A
O760       Zr766   2.457       .  S
O760        C769   1.296       .  A
O761       Zr766   2.503       .  S
O761        C770   1.270       .  A
Zr762       O768   2.337       .  S
Zr762       O780   2.422       .  S
Zr763       O767   2.347       .  S
Zr763       O778   2.348       .  S
Zr764       O768   2.310       .  S
Zr764       O778   2.323       .  S
Zr765       O767   2.298       .  S
Zr765       O780   2.382       .  S
Zr766       O767   2.372       .  S
Zr766       O768   2.327       .  S
Zr766       O780   2.382       .  S
Zr766       O778   2.428       .  S
C769        C883   1.484       .  S
C770        C855   1.488       .  S
C771        C785   1.489       .  S
C772        C813   1.482       .  S
C773        C827   1.472       .  S
C774        C799   1.454       .  S
C775        C838   1.461       .  S
C776        C869   1.470       .  S
H777        O778   0.963       .  S
H779        O780   0.961       .  S
C781        C782   1.411       .  A
C781        C786   1.406       .  A
C781        H788   1.081       .  S
C782        C783   1.411       .  A
C783        C784   1.417       .  A
C783        N790   1.442       .  S
C784        C785   1.400       .  A
C784        H789   1.074       .  S
C785        C786   1.401       .  A
C786        N787   1.436       .  S
N787        O791   1.262       .  A
N787        O792   1.262       .  A
N790        O794   1.262       .  A
N790        O793   1.262       .  A
C795        C796   1.395       .  A
C795        C800   1.390       .  A
C795        H802   1.083       .  S
C796        C797   1.402       .  A
C797        C798   1.387       .  A
C797        N804   1.426       .  S
C798        C799   1.384       .  A
C798        H803   1.065       .  S
C799        C800   1.409       .  A
C800        N801   1.421       .  S
N801        O805   1.258       .  A
N801        O806   1.257       .  A
N804        O808   1.261       .  A
N804        O807   1.261       .  A
C809        C810   1.396       .  A
C809        C814   1.405       .  A
C809        H816   1.084       .  S
C810        C811   1.404       .  A
C811        C812   1.421       .  A
C811        N818   1.425       .  S
C812        C813   1.422       .  A
C812        H817   1.083       .  S
C813        C814   1.430       .  A
C814        N815   1.426       .  S
N815        O819   1.258       .  A
N815        O820   1.259       .  A
N818        O822   1.261       .  A
N818        O821   1.262       .  A
C823        C824   1.406       .  A
C823        C828   1.396       .  A
C823        H830   1.084       .  S
C824        C825   1.425       .  A
C825        C826   1.396       .  A
C825        N832   1.434       .  S
C826        C827   1.405       .  A
C826        H831   1.084       .  S
C827        C828   1.410       .  A
C828        N829   1.445       .  S
N829        O833   1.262       .  A
N829        O834   1.262       .  A
N832        O836   1.262       .  A
N832        O835   1.262       .  A
C837        C838   1.396       .  A
C837        C842   1.367       .  A
C837        H844   1.080       .  S
C838        C839   1.410       .  A
C839        C840   1.390       .  A
C839        N846   1.422       .  S
C840        C841   1.397       .  A
C840        H845   1.084       .  S
C841        C842   1.412       .  A
C842        N843   1.433       .  S
N843        O847   1.260       .  A
N843        O848   1.262       .  A
N846        O850   1.258       .  A
N846        O849   1.259       .  A
C851        C852   1.381       .  A
C851        C856   1.374       .  A
C851        H858   1.086       .  S
C852        C853   1.401       .  A
C853        C854   1.421       .  A
C853        N860   1.427       .  S
C854        C855   1.419       .  A
C854        H859   1.083       .  S
C855        C856   1.418       .  A
C856        N857   1.425       .  S
N857        O861   1.262       .  A
N857        O862   1.261       .  A
N860        O864   1.262       .  A
N860        O863   1.262       .  A
C865        C866   1.391       .  A
C865        C870   1.404       .  A
C865        H872   1.084       .  S
C866        C867   1.404       .  A
C867        C868   1.412       .  A
C867        N874   1.421       .  S
C868        C869   1.414       .  A
C868        H873   1.084       .  S
C869        C870   1.437       .  A
C870        N871   1.430       .  S
N871        O875   1.260       .  A
N871        O876   1.259       .  A
N874        O878   1.258       .  A
N874        O877   1.261       .  A
C879        C880   1.387       .  A
C879        C884   1.400       .  A
C879        H886   1.080       .  S
C880        C881   1.400       .  A
C881        C882   1.421       .  A
C881        N888   1.422       .  S
C882        C883   1.420       .  A
C882        H887   1.081       .  S
C883        C884   1.431       .  A
C884        N885   1.422       .  S
N885        O889   1.259       .  A
N885        O890   1.260       .  A
N888        O892   1.260       .  A
N888        O891   1.262       .  A
C893        C894   1.401       .  A
C893        C898   1.410       .  A
C893        H900   1.083       .  S
C894        C895   1.408       .  A
C895        C896   1.363       .  A
C895        N902   1.420       .  S
C896        C897   1.379       .  A
C896        H901   1.082       .  S
C897        C898   1.414       .  A
C898        N899   1.436       .  S
N899        O903   1.262       .  A
N899        O904   1.262       .  A
N902        O906   1.260       .  A
N902        O905   1.261       .  A
C907        C908   1.390       .  A
C907        C912   1.396       .  A
C907        H914   1.084       .  S
C908        C909   1.398       .  A
C909        C910   1.400       .  A
C909        N916   1.433       .  S
C910        C911   1.406       .  A
C910        H915   1.078       .  S
C911        C912   1.425       .  A
C912        N913   1.418       .  S
N913        O917   1.259       .  A
N913        O918   1.258       .  A
N916        O920   1.257       .  A
N916        O919   1.259       .  A
C921        C922   1.379       .  A
C921        C926   1.364       .  A
C921        H928   1.087       .  S
C922        C923   1.392       .  A
C923        C924   1.412       .  A
C923        N930   1.428       .  S
C924        C925   1.417       .  A
C924        H929   1.081       .  S
C925        C926   1.427       .  A
C926        N927   1.430       .  S
N927        O931   1.260       .  A
N927        O932   1.261       .  A
N930        O934   1.262       .  A
N930        O933   1.262       .  A
C935        C936   1.386       .  A
C935        C940   1.401       .  A
C935        H942   1.084       .  S
C936        C937   1.395       .  A
C937        C938   1.377       .  A
C937        N944   1.428       .  S
C938        C939   1.404       .  A
C938        H943   1.084       .  S
C939        C940   1.428       .  A
C940        N941   1.434       .  S
N941        O945   1.261       .  A
N941        O946   1.261       .  A
N944        O948   1.262       .  A
N944        O947   1.261       .  A
C949        C950   1.391       .  A
C949        C954   1.390       .  A
C949        H956   1.085       .  S
C950        C951   1.418       .  A
C951        C952   1.375       .  A
C951        N958   1.427   1_554  S
C952        C953   1.389       .  A
C952        H957   1.083       .  S
C953        C954   1.426       .  A
C954        N955   1.429       .  S
N955        O959   1.262       .  A
N955        O960   1.260       .  A
N958        O962   1.261       .  A
N958        O961   1.262       .  A
C963        C964   1.377       .  A
C963        C968   1.390       .  A
C963        H970   1.085       .  S
C964        C965   1.410   1_545  A
C965        C966   1.418       .  A
C965        N972   1.428       .  S
C966        C967   1.407   1_565  A
C966        H971   1.083       .  S
C967        C968   1.426       .  A
C968        N969   1.413       .  S
N969        O973   1.261       .  A
N969        O974   1.262       .  A
N972        O976   1.262       .  A
N972        O975   1.263       .  A
C977        C978   1.386   1_655  A
C977        C982   1.361       .  A
C977        H984   1.087       .  S
C978        C979   1.415       .  A
C979        C980   1.422       .  A
C979        N986   1.437       .  S
C980        C981   1.413   1_455  A
C980        H985   1.083       .  S
C981        C982   1.404       .  A
C982        N983   1.418       .  S
N983        O987   1.259       .  A
N983        O988   1.260       .  A
N986        O990   1.262       .  A
N986        O989   1.262       .  A
C991        C992   1.388       .  A
C991        C996   1.384       .  A
C991        H998   1.069       .  S
C992        C993   1.426       .  A
C993        C994   1.415       .  A
C993       N1000   1.422       .  S
C994        C995   1.399       .  A
C994        H999   1.082   1_544  S
C995        C996   1.403       .  A
C996        N997   1.438       .  S
N997       O1001   1.261       .  A
N997       O1002   1.260   1_545  A
N1000      O1004   1.261   1_545  A
N1000      O1003   1.262       .  A
C1005      C1006   1.397   1_655  A
C1005      C1010   1.400       .  A
C1005      H1012   1.084       .  S
C1006      C1007   1.395       .  A
C1007      C1008   1.416       .  A
C1007      N1014   1.424       .  S
C1008      C1009   1.415       .  A
C1008      H1013   1.069       .  S
C1009      C1010   1.429   1_455  A
C1010      N1011   1.438       .  S
N1011      O1015   1.256       .  A
N1011      O1016   1.262       .  A
N1014      O1018   1.262       .  A
N1014      O1017   1.262       .  A
C1019      C1020   1.390       .  A
C1019      C1024   1.393       .  A
C1019      H1026   1.074       .  S
C1020      C1021   1.412       .  A
C1021      C1022   1.400       .  A
C1021      N1028   1.427   1_545  S
C1022      C1023   1.406       .  A
C1022      H1027   1.084       .  S
C1023      C1024   1.408       .  A
C1024      N1025   1.425       .  S
N1025      O1029   1.261       .  A
N1025      O1030   1.262       .  A
N1028      O1032   1.262       .  A
N1028      O1031   1.261       .  A
C1033      C1034   1.377       .  A
C1033      C1038   1.403       .  A
C1033      H1040   1.085   1_455  S
C1034      C1035   1.410       .  A
C1035      C1036   1.421       .  A
C1035      N1042   1.431       .  S
C1036      C1037   1.419       .  A
C1036      H1041   1.083   1_565  S
C1037      C1038   1.442       .  A
C1038      N1039   1.420   1_455  S
N1039      O1043   1.260   1_565  A
N1039      O1044   1.259       .  A
N1042      O1046   1.262   1_565  A
N1042      O1045   1.263       .  A
C1047      C1048   1.388       .  A
C1047      C1052   1.395       .  A
C1047      H1054   1.078       .  S
C1048      C1049   1.422       .  A
C1049      C1050   1.390       .  A
C1049      N1056   1.418   1_455  S
C1050      C1051   1.387       .  A
C1050      H1055   1.085   1_455  S
C1051      C1052   1.416       .  A
C1052      N1053   1.425       .  S
N1053      O1057   1.262       .  A
N1053      O1058   1.260       .  A
N1056      O1060   1.259       .  A
N1056      O1059   1.261       .  A
C1061      C1062   1.376   1_655  A
C1061      C1066   1.382       .  A
C1061      H1068   1.085   1_655  S
C1062      C1063   1.400       .  A
C1063      C1064   1.412   1_455  A
C1063      N1070   1.433       .  S
C1064      C1065   1.401       .  A
C1064      H1069   1.082       .  S
C1065      C1066   1.422       .  A
C1066      N1067   1.415       .  S
N1067      O1071   1.257       .  A
N1067      O1072   1.255       .  A
N1070      O1074   1.263       .  A
N1070      O1073   1.262       .  A
C1075      C1076   1.404       .  A
C1075      C1080   1.411       .  A
C1075      H1082   1.083       .  S
C1076      C1077   1.395   1_554  A
C1077      C1078   1.415       .  A
C1077      N1084   1.428       .  S
C1078      C1079   1.429   1_556  A
C1078      H1083   1.081       .  S
C1079      C1080   1.416       .  A
C1080      N1081   1.417       .  S
N1081      O1085   1.261       .  A
N1081      O1086   1.254       .  A
N1084      O1088   1.260       .  A
N1084      O1087   1.263       .  A
C1089      C1090   1.390   1_554  A
C1089      C1094   1.364       .  A
C1089      H1096   1.072       .  S
C1090      C1091   1.422       .  A
C1091      C1092   1.399       .  A
C1091      N1098   1.429       .  S
C1092      C1093   1.397   1_556  A
C1092      H1097   1.084       .  S
C1093      C1094   1.404       .  A
C1094      N1095   1.423       .  S
N1095      O1099   1.257       .  A
N1095      O1100   1.263       .  A
N1098      O1102   1.260       .  A
N1098      O1101   1.259       .  A
C1103      C1104   1.392       .  A
C1103      C1108   1.372       .  A
C1103      H1110   1.082       .  S
C1104      C1105   1.414       .  A
C1105      C1106   1.402       .  A
C1105      N1112   1.425   1_655  S
C1106      C1107   1.404       .  A
C1106      H1111   1.084       .  S
C1107      C1108   1.416       .  A
C1108      N1109   1.430   1_556  S
N1109      O1113   1.260       .  A
N1109      O1114   1.263   1_554  A
N1112      O1116   1.262       .  A
N1112      O1115   1.260       .  A
