geometry optimzed in LAMMPS
_audit_creation_date              2020-12-01 
_audit_creation_method            'lammps2cif' 
_symmetry_space_group_name_H-M    'P1' 
_symmetry_Int_Tables_number       1 
_symmetry_cell_setting            triclinic 
loop_ 
_symmetry_equiv_pos_as_xyz 
  x,y,z 
_cell_length_a                    43.15743135 
_cell_length_b                    43.15862897949105 
_cell_length_c                    43.15863398811349 
_cell_angle_alpha                 90.02095363382021 
_cell_angle_beta                  89.98125260161531 
_cell_angle_gamma                 89.98133735103733 
loop_ 
_atom_site_label 
_atom_site_type_symbol 
_atom_site_fract_x 
_atom_site_fract_y 
_atom_site_fract_z 
_atom_site_charge 
O1          O  0.61206960  0.28182642  0.93318389    -0.69500
O2          O  0.60449925  0.24667314  0.85277799    -0.69800
O3          O  0.64847883  0.24689359  0.89675178    -0.69600
O4          O  0.56789744  0.28160405  0.88901091    -0.69600
O5          O  0.58776794  0.32332347  0.86891924    -0.69600
O6          O  0.66835693  0.28861282  0.87666172    -0.69600
O7          O  0.62438174  0.28839158  0.83269104    -0.69600
O8          O  0.63195454  0.32354611  0.91310760    -0.69700
V9          V  0.60858421  0.26509951  0.89258037     1.35200
V10         V  0.62769180  0.30519254  0.87327350     1.35200
C11         C  0.62368068  0.30844612  0.93676539     0.79700
C12         C  0.61331927  0.26153366  0.82917033     0.79700
C13         C  0.67201085  0.26182541  0.88784774     0.79600
C14         C  0.56418484  0.30814398  0.87726136     0.79600
O15         O  0.33622311  0.61906464  0.91178825    -0.69500
O16         O  0.30135283  0.61121805  0.83129500    -0.69800
O17         O  0.30126892  0.65527525  0.87521695    -0.69600
O18         O  0.33630140  0.57479326  0.86766192    -0.69600
O19         O  0.29458717  0.55481786  0.88767708    -0.69600
O20         O  0.25955830  0.63527825  0.89522323    -0.69600
O21         O  0.25964102  0.59122081  0.85129797    -0.69600
O22         O  0.29450997  0.59907122  0.93178702    -0.69700
V23         V  0.31801037  0.61466237  0.87191571     1.35200
V24         V  0.27792382  0.59544723  0.89114505     1.35200
C25         C  0.32108086  0.61077751  0.93541870     0.79700
C26         C  0.27454384  0.60005840  0.82771810     0.79700
C27         C  0.27443284  0.65884973  0.88633797     0.79600
C28         C  0.32118460  0.55117544  0.87601611     0.79600
O29         O  0.37339424  0.40411153  0.80917685    -0.69500
O30         O  0.38096090  0.32345126  0.77460017    -0.69800
O31         O  0.33704383  0.36751901  0.77439578    -0.69600
O32         O  0.41749645  0.35986132  0.80938816    -0.69600
O33         O  0.39745377  0.34010049  0.85118999    -0.69600
O34         O  0.31699470  0.34775776  0.81619671    -0.69600
O35         O  0.36090836  0.30369197  0.81640035    -0.69600
O36         O  0.35333711  0.38436586  0.85097903    -0.69700
V37         V  0.37687198  0.36338799  0.79274004     1.35200
V38         V  0.35759967  0.34439799  0.83291205     1.35200
C39         C  0.36171483  0.40789941  0.83574604     0.79700
C40         C  0.37205070  0.29996464  0.78959477     0.79700
C41         C  0.31344610  0.35877771  0.78932725     0.79600
C42         C  0.42109880  0.34832376  0.83603511     0.79600
O43         O  0.56781432  0.60021080  0.20563271    -0.69500
O44         O  0.64818048  0.59250266  0.24080720    -0.69800
O45         O  0.60425305  0.63655228  0.24059125    -0.69600
O46         O  0.61193583  0.55597252  0.20585474    -0.69600
O47         O  0.63208933  0.57581684  0.16414581    -0.69600
O48         O  0.62440252  0.65641077  0.19888466    -0.69600
O49         O  0.66832744  0.61236311  0.19910034    -0.69600
O50         O  0.58795088  0.62007215  0.16392392    -0.69700
V51         V  0.60839846  0.59665827  0.22237179     1.35200
V52         V  0.62776336  0.61574388  0.18228973     1.35200
C53         C  0.56427102  0.61181659  0.17900763     0.79700
C54         C  0.67181131  0.60129168  0.22595724     0.79700
C55         C  0.61320090  0.66007369  0.22567418     0.79600
C56         C  0.62369363  0.55224600  0.17931140     0.79600
O57         O  0.64929048  0.38541120  0.14749443    -0.69500
O58         O  0.68417493  0.30486441  0.13997010    -0.69800
O59         O  0.68416134  0.34892884  0.18388310    -0.69600
O60         O  0.64930067  0.34113579  0.10338110    -0.69600
O61         O  0.69105657  0.36104864  0.08339117    -0.69600
O62         O  0.72591827  0.36884274  0.16389149    -0.69600
O63         O  0.72592987  0.32477659  0.11997200    -0.69600
O64         O  0.69104771  0.40530852  0.12749139    -0.69700
V65         V  0.66751001  0.34550902  0.14325778     1.35200
V66         V  0.70763860  0.36464554  0.12403804     1.35200
C67         C  0.66444762  0.40900003  0.13913251     0.79700
C68         C  0.71100681  0.30123505  0.12885744     0.79700
C69         C  0.71099158  0.36003482  0.18746786     0.79600
C70         C  0.66446180  0.34939788  0.07975416     0.79600
O71         O  0.35343805  0.63674021  0.10206433    -0.69500
O72         O  0.36099671  0.67181593  0.18251518    -0.69800
O73         O  0.31700786  0.67159685  0.13856044    -0.69600
O74         O  0.39763671  0.63696129  0.14623339    -0.69600
O75         O  0.41745763  0.67872316  0.12618146    -0.69600
O76         O  0.33683371  0.71335938  0.11850936    -0.69600
O77         O  0.38082802  0.71357842  0.16246963    -0.69600
O78         O  0.37327171  0.67850213  0.08202534    -0.69700
V79         V  0.35769229  0.65505620  0.14191578     1.35200
V80         V  0.37675077  0.69519050  0.12264668     1.35200
C81         C  0.36169535  0.65187012  0.07842021     0.79700
C82         C  0.37202743  0.69868315  0.18606321     0.79700
C83         C  0.31332040  0.69839344  0.12740706     0.79600
C84         C  0.42120138  0.65216986  0.13789190     0.79600
O85         O  0.58796949  0.13626046  0.64775076    -0.69500
O86         O  0.66834786  0.17143334  0.64004352    -0.69800
O87         O  0.62442071  0.17122224  0.68408886    -0.69600
O88         O  0.63211005  0.13647756  0.60349772    -0.69600
O89         O  0.61195927  0.17818594  0.58364957    -0.69600
O90         O  0.60427390  0.21292828  0.66422660    -0.69600
O91         O  0.64820353  0.21313963  0.62017929    -0.69600
O92         O  0.56783567  0.17796872  0.62788557    -0.69700
V93         V  0.62778294  0.15462445  0.64342329     1.35200
V94         V  0.60842062  0.19470598  0.62433402     1.35200
C95         C  0.56429070  0.15134450  0.63949282     0.79700
C96         C  0.67183332  0.19828954  0.62897081     0.79700
C97         C  0.61322002  0.19801245  0.68774945     0.79600
C98         C  0.62371568  0.15164165  0.57992548     0.79600
O99         O  0.69105573  0.09980420  0.43298633    -0.69500
O100        O  0.72593199  0.09228537  0.35245175    -0.69800
O101        O  0.72592576  0.13620349  0.39651947    -0.69600
O102        O  0.69105909  0.05570520  0.38872487    -0.69600
O103        O  0.64930298  0.07569811  0.36881559    -0.69600
O104        O  0.68416861  0.15619795  0.37660902    -0.69600
O105        O  0.68417681  0.11228634  0.33254308    -0.69600
O106        O  0.64929832  0.11981021  0.41309251    -0.69700
V107        V  0.70764364  0.09635111  0.39232209     1.35200
V108        V  0.66751483  0.11557366  0.37318894     1.35200
C109        C  0.66445679  0.11144720  0.43668005     0.79700
C110        C  0.71100781  0.10117230  0.32891150     0.79700
C111        C  0.71099964  0.15978100  0.38771364     0.79600
C112        C  0.66446343  0.05207003  0.37707556     0.79600
O113        O  0.37328027  0.05437445  0.70616484    -0.69500
O114        O  0.38084321  0.13481585  0.74124675    -0.69800
O115        O  0.33684475  0.09085967  0.74102343    -0.69600
O116        O  0.41747045  0.09852632  0.70639035    -0.69600
O117        O  0.39765294  0.11858295  0.66462916    -0.69600
O118        O  0.31702216  0.11091535  0.69926161    -0.69600
O119        O  0.36101518  0.15486587  0.69948490    -0.69600
O120        O  0.35345001  0.07441824  0.66440364    -0.69700
V121        V  0.37676274  0.09499439  0.72285610     1.35200
V122        V  0.35770746  0.11426795  0.68272245     1.35200
C123        C  0.36170450  0.05077226  0.67953215     0.79700
C124        C  0.37204530  0.15841119  0.72635267     0.79700
C125        C  0.31333276  0.09976056  0.72605738     0.79600
C126        C  0.42121625  0.11023813  0.67983795     0.79600
O127        O  0.29450621  0.90414932  0.62671964    -0.69500
O128        O  0.25963097  0.82366308  0.61886654    -0.69800
O129        O  0.25955402  0.86758597  0.66292658    -0.69600
O130        O  0.29457750  0.86004173  0.58246363    -0.69600
O131        O  0.33629145  0.84002246  0.60243540    -0.69600
O132        O  0.30126437  0.84757557  0.68291991    -0.69600
O133        O  0.30134256  0.80365612  0.63886013    -0.69600
O134        O  0.33621904  0.88414632  0.64670940    -0.69700
V135        V  0.27791687  0.86350870  0.62309422     1.35200
V136        V  0.31800317  0.84427541  0.64230584     1.35200
C137        C  0.32107796  0.90777841  0.63842484     0.79700
C138        C  0.27453277  0.80008166  0.62770165     0.79700
C139        C  0.27442937  0.85869843  0.68649667     0.79600
C140        C  0.32117371  0.84837864  0.57881889     0.79600
O141        O  0.63194412  0.88542732  0.35121224    -0.69500
O142        O  0.62436616  0.80501353  0.31605261    -0.69800
O143        O  0.66834521  0.84898034  0.31627863    -0.69600
O144        O  0.58775353  0.84124283  0.35098457    -0.69600
O145        O  0.56788720  0.86133867  0.30926522    -0.69600
O146        O  0.64847103  0.86907458  0.27455959    -0.69600
O147        O  0.60448774  0.82510453  0.27433424    -0.69600
O148        O  0.61206322  0.90550785  0.30949272    -0.69700
V149        V  0.62767885  0.84559469  0.33285607     1.35200
V150        V  0.60857515  0.86490557  0.29276316     1.35200
C151        C  0.62367317  0.90908674  0.33611327     0.79700
C152        C  0.61330491  0.80149527  0.28919390     0.79700
C153        C  0.67200149  0.86016756  0.28949201     0.79600
C154        C  0.56417203  0.84958785  0.33580421     0.79600
O155        O  0.35331703  0.82332521  0.41200843    -0.69500
O156        O  0.36088954  0.78873772  0.33133844    -0.69800
O157        O  0.31697355  0.78854205  0.37540186    -0.69600
O158        O  0.39743598  0.82352808  0.36774547    -0.69600
O159        O  0.41747407  0.78172659  0.38751159    -0.69600
O160        O  0.33701822  0.74674146  0.39516826    -0.69600
O161        O  0.38093760  0.74693790  0.35110293    -0.69600
O162        O  0.37336958  0.78152333  0.43175931    -0.69700
V163        V  0.35758011  0.80525381  0.37204262     1.35200
V164        V  0.37684806  0.76508212  0.39103764     1.35200
C165        C  0.36169258  0.80809405  0.43554395     0.79700
C166        C  0.37202972  0.76193080  0.32761436     0.79700
C167        C  0.31342223  0.76167384  0.38642399     0.79600
C168        C  0.42107928  0.80837221  0.37597183     0.79600
O169        O  0.06763090  0.78148068  0.12673702    -0.69500
O170        O  0.14811623  0.74652899  0.11895271    -0.69800
O171        O  0.10424542  0.74671036  0.16307371    -0.69600
O172        O  0.11168615  0.78129488  0.08242695    -0.69600
O173        O  0.13171772  0.82310466  0.10218442    -0.69600
O174        O  0.12427390  0.78851857  0.18284245    -0.69600
O175        O  0.16813841  0.78833957  0.13872376    -0.69600
O176        O  0.08765101  0.82328976  0.14650829    -0.69700
V177        V  0.10827109  0.76485380  0.12314428     1.35200
V178        V  0.12751962  0.80503357  0.14214416     1.35200
C179        C  0.06401222  0.80811810  0.13831688     0.79700
C180        C  0.17170615  0.76147304  0.12767884     0.79700
C181        C  0.11315669  0.76171133  0.18656381     0.79600
C182        C  0.12333776  0.80786768  0.07864622     0.79600
O183        O  0.91752341  0.86085984  0.20593249    -0.69500
O184        O  0.83711504  0.86873268  0.24103612    -0.69800
O185        O  0.88099241  0.82462494  0.24089537    -0.69600
O186        O  0.87345447  0.90515987  0.20607936    -0.69600
O187        O  0.85333564  0.88527064  0.16437393    -0.69600
O188        O  0.86087781  0.80472299  0.19919155    -0.69600
O189        O  0.81700643  0.84882775  0.19933038    -0.69600
O190        O  0.89741823  0.84095524  0.16422760    -0.69700
V191        V  0.87691948  0.86449554  0.22263650     1.35200
V192        V  0.85758798  0.84536759  0.18255720     1.35200
C193        C  0.92108794  0.84919387  0.17932550     0.79700
C194        C  0.81349582  0.85995089  0.22617192     0.79700
C195        C  0.87204627  0.80108834  0.22598910     0.79600
C196        C  0.86173304  0.90885734  0.17952591     0.79600
O197        O  0.14878383  0.83996049  0.91179359    -0.69500
O198        O  0.18383298  0.84766426  0.83134223    -0.69800
O199        O  0.18383176  0.80369474  0.87530768    -0.69600
O200        O  0.14878519  0.88414796  0.86761032    -0.69600
O201        O  0.19044821  0.90417856  0.88766347    -0.69600
O202        O  0.22549161  0.82374080  0.89535792    -0.69600
O203        O  0.22549288  0.86771153  0.85139115    -0.69600
O204        O  0.19044681  0.86001056  0.93182736    -0.69700
V205        V  0.16708239  0.84429384  0.87194049     1.35200
V206        V  0.20711981  0.86355962  0.89120918     1.35200
C207        C  0.16387303  0.84830286  0.93543584     0.79700
C208        C  0.21065212  0.85881456  0.82779923     0.79700
C209        C  0.21065050  0.80015007  0.88645843     0.79600
C210        C  0.16387492  0.90778897  0.87595536     0.79600
O211        O  0.08766811  0.11886845  0.85096062    -0.69500
O212        O  0.16815331  0.11108183  0.81600592    -0.69800
O213        O  0.12429137  0.15520292  0.81618963    -0.69600
O214        O  0.13173222  0.07454228  0.85077054    -0.69600
O215        O  0.11169750  0.05478854  0.80896053    -0.69600
O216        O  0.10425978  0.13543768  0.77438127    -0.69600
O217        O  0.14812804  0.09131439  0.77419512    -0.69600
O218        O  0.06764484  0.09910082  0.80915136    -0.69700
V219        V  0.12753554  0.11450341  0.83270210     1.35200
V220        V  0.10828401  0.09550701  0.79252214     1.35200
C221        C  0.06402811  0.11067880  0.83578989     0.79700
C222        C  0.17171918  0.10003833  0.78913854     0.79700
C223        C  0.11317332  0.15892641  0.78938304     0.79600
C224        C  0.12335001  0.05100550  0.83553256     0.79600
O225        O  0.79440271  0.09985143  0.08336170    -0.69500
O226        O  0.75950172  0.09222339  0.16387142    -0.69800
O227        O  0.75950377  0.13619803  0.11990093    -0.69600
O228        O  0.79440056  0.05568609  0.12752281    -0.69600
O229        O  0.83614332  0.07563528  0.14749128    -0.69600
O230        O  0.80124528  0.15615739  0.13986727    -0.69600
O231        O  0.80124329  0.11218593  0.18383447    -0.69600
O232        O  0.83614544  0.11981608  0.10331478    -0.69700
V233        V  0.77780201  0.09633960  0.12401415     1.35200
V234        V  0.81791705  0.11552406  0.14320226     1.35200
C235        C  0.82099832  0.11149456  0.07970289     0.79700
C236        C  0.77441126  0.10108512  0.18743386     0.79700
C237        C  0.77441392  0.15975895  0.12876559     0.79600
C238        C  0.82099540  0.05202492  0.13916682     0.79600
O239        O  0.89743556  0.13657461  0.86863917    -0.69500
O240        O  0.81702058  0.17167001  0.87651132    -0.69800
O241        O  0.86089389  0.17153817  0.83240830    -0.69600
O242        O  0.85335106  0.13671383  0.91295297    -0.69600
O243        O  0.87346562  0.17841942  0.93284622    -0.69600
O244        O  0.88100431  0.21324214  0.85231417    -0.69600
O245        O  0.83712495  0.21337593  0.89642019    -0.69600
O246        O  0.91753656  0.17827963  0.88854778    -0.69700
V247        V  0.85760365  0.15490048  0.87305149     1.35200
V248        V  0.87693109  0.19497993  0.89218326     1.35200
C249        C  0.92110377  0.15167402  0.87687942     0.79700
C250        C  0.81350732  0.19851041  0.88763635     0.79700
C251        C  0.87206060  0.19833678  0.82877610     0.79600
C252        C  0.86174596  0.15186480  0.93654121     0.79600
O253        O  0.19092598  0.55463471  0.62645381    -0.69500
O254        O  0.22596348  0.63505946  0.61871895    -0.69800
O255        O  0.22596799  0.59108176  0.66269651    -0.69600
O256        O  0.19092146  0.59881309  0.58227547    -0.69600
O257        O  0.14926047  0.61888845  0.60234173    -0.69600
O258        O  0.18430601  0.61115538  0.68276840    -0.69600
O259        O  0.18430153  0.65512696  0.63879704    -0.69600
O260        O  0.14926495  0.57469670  0.64653338    -0.69700
V261        V  0.20759511  0.59524743  0.62288643     1.35200
V262        V  0.16755778  0.61453832  0.64218149     1.35200
C263        C  0.16436137  0.55104238  0.63820179     0.79700
C264        C  0.21111369  0.65866033  0.62761587     0.79700
C265        C  0.21111965  0.59997688  0.68629896     0.79600
C266        C  0.16435530  0.61055829  0.57868590     0.79600
O267        O  0.08771254  0.34035596  0.66451686    -0.69500
O268        O  0.16829498  0.34792171  0.69924542    -0.69800
O269        O  0.12425073  0.30402506  0.69939033    -0.69600
O270        O  0.13196821  0.38446031  0.66436699    -0.69600
O271        O  0.11209290  0.40453499  0.70611916    -0.69600
O272        O  0.10437343  0.32409926  0.74114438    -0.69600
O273        O  0.14842236  0.36800315  0.74099862    -0.69600
O274        O  0.06785008  0.36044228  0.70626995    -0.69700
V275        V  0.12763343  0.34461814  0.68265798     1.35200
V276        V  0.10853258  0.36391815  0.72278348     1.35200
C277        C  0.06413486  0.34874816  0.67969965     0.79700
C278        C  0.17194993  0.35907059  0.72605466     0.79700
C279        C  0.11317801  0.30049276  0.72624687     0.79600
C280        C  0.12370848  0.40811899  0.67949534     0.79600
O281        O  0.06782887  0.67860469  0.38808348    -0.69500
O282        O  0.14839777  0.71334176  0.39564182    -0.69800
O283        O  0.10434930  0.71347937  0.35173746    -0.69600
O284        O  0.11207135  0.67846213  0.43217646    -0.69600
O285        O  0.13195074  0.63671006  0.41210562    -0.69600
O286        O  0.12423072  0.67172538  0.33166723    -0.69600
O287        O  0.16827451  0.67158865  0.37556429    -0.69600
O288        O  0.08769542  0.63685169  0.36800104    -0.69700
V289        V  0.10850977  0.69512245  0.39155808     1.35200
V290        V  0.12761456  0.65499704  0.37226182     1.35200
C291        C  0.06411625  0.65203289  0.37639194     0.79700
C292        C  0.17192684  0.69839913  0.38671104     0.79700
C293        C  0.11315568  0.69858060  0.32813241     0.79600
C294        C  0.12368953  0.65183979  0.43576288     0.79600
O295        O  0.89732119  0.32355517  0.64753153    -0.69500
O296        O  0.81678242  0.28872655  0.63993522    -0.69800
O297        O  0.86082364  0.28862041  0.68383820    -0.69600
O298        O  0.85306659  0.32366771  0.60341530    -0.69600
O299        O  0.87299932  0.28194901  0.58332777    -0.69600
O300        O  0.88075762  0.24690216  0.66374519    -0.69600
O301        O  0.83671457  0.24700917  0.61983804    -0.69600
O302        O  0.91723783  0.28183571  0.62742880    -0.69700
V303        V  0.85742261  0.30536629  0.64325178     1.35200
V304        V  0.87657813  0.26527404  0.62393649     1.35200
C305        C  0.92091956  0.30839944  0.63914744     0.79700
C306        C  0.81316588  0.26191728  0.62877311     0.79700
C307        C  0.87193541  0.26177821  0.68735775     0.79600
C308        C  0.86134239  0.30855528  0.57975161     0.79600
O309        O  0.91721869  0.59974391  0.30949282    -0.69500
O310        O  0.83669314  0.59214994  0.27467221    -0.69800
O311        O  0.88073646  0.63605691  0.27455819    -0.69600
O312        O  0.87298012  0.55564287  0.30961327    -0.69600
O313        O  0.85305011  0.57573442  0.35133135    -0.69600
O314        O  0.86080517  0.65615395  0.31627580    -0.69600
O315        O  0.81676376  0.61225115  0.31638899    -0.69600
O316        O  0.89730470  0.61985067  0.35121161    -0.69700
V317        V  0.87655792  0.59624998  0.29293414     1.35200
V318        V  0.85740500  0.61556915  0.33302578     1.35200
C319        C  0.92090212  0.61146534  0.33605508     0.79700
C320        C  0.81314549  0.60108675  0.28958093     0.79700
C321        C  0.87191551  0.65967095  0.28943264     0.79600
C322        C  0.86132513  0.55206929  0.33622076     0.79600
O323        O  0.83585037  0.38545393  0.36894650    -0.69500
O324        O  0.80101462  0.30492564  0.37658404    -0.69800
O325        O  0.80101121  0.34890110  0.33260867    -0.69600
O326        O  0.83585383  0.34126631  0.41313424    -0.69600
O327        O  0.79408212  0.36122634  0.43308483    -0.69600
O328        O  0.75923893  0.36885955  0.35256522    -0.69600
O329        O  0.75924233  0.32487884  0.39654579    -0.69600
O330        O  0.79407867  0.40540129  0.38890979    -0.69700
V331        V  0.81765465  0.34556211  0.37324383     1.35200
V332        V  0.77751098  0.36474247  0.39242735     1.35200
C333        C  0.82067011  0.40906606  0.37724536     0.79700
C334        C  0.77418385  0.30131754  0.38769706     0.79700
C335        C  0.77417940  0.36001227  0.32900272     0.79600
C336        C  0.82067485  0.34956427  0.43674753     0.79600
C337        C  0.85652930  0.52153327  0.34858024    -0.16300
C338        C  0.85064074  0.49573784  0.35760980     0.07800
C339        C  0.84185679  0.46545956  0.36649365     0.09600
C340        C  0.83292227  0.43964388  0.37243875    -0.17100
C341        C  0.85654486  0.32091109  0.54921439    -0.16300
C342        C  0.85065418  0.32993733  0.52341830     0.07800
C343        C  0.84186728  0.33881740  0.49313979     0.09600
C344        C  0.83293012  0.34475979  0.46732441    -0.17100
C345        C  0.95148915  0.61622376  0.34829743    -0.16300
C346        C  0.97733656  0.62209320  0.35718747     0.07800
C347        C  0.00766971  0.63086534  0.36588755     0.09600
C348        C  0.03351885  0.63979315  0.37169204    -0.17100
C349        C  0.03353624  0.34404649  0.66746358    -0.16300
C350        C  0.00768647  0.33823993  0.65853900     0.07800
C351        C  0.97735303  0.32953705  0.64977049     0.09600
C352        C  0.95150586  0.32064459  0.64390369    -0.17100
C353        C  0.12845301  0.63947504  0.46630219    -0.16300
C354        C  0.13431983  0.63040479  0.49208836     0.07800
C355        C  0.14309584  0.62144700  0.52234737     0.09600
C356        C  0.15204733  0.61543345  0.54814130    -0.17100
C357        C  0.15205708  0.52049658  0.64307863    -0.16300
C358        C  0.14310837  0.49470204  0.64909407     0.07800
C359        C  0.13433526  0.46444300  0.65805448     0.09600
C360        C  0.12847040  0.43865719  0.66712728    -0.17100
C361        C  0.87408667  0.24824418  0.71767221    -0.16300
C362        C  0.87497911  0.23675287  0.74312902     0.07800
C363        C  0.87499792  0.22325414  0.77294961     0.09600
C364        C  0.87414418  0.21179380  0.79842198    -0.17100
C365        C  0.85698971  0.13962794  0.96713134    -0.16300
C366        C  0.85109899  0.13073767  0.99297530     0.07800
C367        C  0.84228192  0.12203136  0.02329657     0.09600
C368        C  0.83330460  0.11621571  0.04912966    -0.17100
C369        C  0.11109709  0.18932869  0.77602937    -0.16300
C370        C  0.11022309  0.21483709  0.76464800     0.07800
C371        C  0.11020035  0.24469252  0.75122233     0.09600
C372        C  0.11105610  0.27016921  0.73976947    -0.17100
C373        C  0.95163488  0.13931056  0.87201507    -0.16300
C374        C  0.97742173  0.13028870  0.86604287     0.07800
C375        C  0.00768066  0.12142391  0.85714604     0.09600
C376        C  0.03347557  0.11549219  0.84812050    -0.17100
C377        C  0.15154366  0.93834393  0.87117702    -0.16300
C378        C  0.14259452  0.96417746  0.86531804     0.07800
C379        C  0.13384853  0.99451230  0.85658453     0.09600
C380        C  0.12803009  0.02037696  0.84770522    -0.17100
C381        C  0.87406708  0.68998420  0.27589607    -0.16300
C382        C  0.87496055  0.71544042  0.26440339     0.07800
C383        C  0.87498101  0.74526068  0.25090411     0.09600
C384        C  0.87412866  0.77073337  0.23944420    -0.17100
C385        C  0.85697809  0.93944860  0.16729141    -0.16300
C386        C  0.85108931  0.96529363  0.15840320     0.07800
C387        C  0.84227492  0.99561636  0.14969930     0.09600
C388        C  0.83329976  0.02145059  0.14388569    -0.17100
C389        C  0.11107854  0.74835642  0.21696542    -0.16300
C390        C  0.11020290  0.73697543  0.24247391     0.07800
C391        C  0.11017858  0.72355137  0.27233009     0.09600
C392        C  0.11103359  0.71210049  0.29780765    -0.17100
C393        C  0.12801971  0.82004238  0.04801874    -0.16300
C394        C  0.13384039  0.82892395  0.02215536     0.07800
C395        C  0.14258923  0.83766045  0.99182216     0.09600
C396        C  0.15154040  0.84352193  0.96598988    -0.17100
C397        C  0.03345868  0.82044599  0.14313126    -0.16300
C398        C  0.00766329  0.82946846  0.14906511     0.07800
C399        C  0.97740417  0.83836156  0.15793336     0.09600
C400        C  0.95161791  0.84433110  0.16695837    -0.17100
C401        C  0.28308910  0.74818072  0.38858038    -0.16300
C402        C  0.25761675  0.73672499  0.38950824     0.07800
C403        C  0.22777894  0.72326440  0.38958405     0.09600
C404        C  0.20229301  0.71183077  0.38877241    -0.17100
C405        C  0.70237489  0.86229958  0.27607538    -0.16300
C406        C  0.72786899  0.86315651  0.26465091     0.07800
C407        C  0.75771214  0.86310544  0.25118815     0.09600
C408        C  0.78318137  0.86216588  0.23971279    -0.17100
C409        C  0.45162610  0.82073876  0.37127326    -0.16300
C410        C  0.47743534  0.82979967  0.36549137     0.07800
C411        C  0.50773481  0.83873624  0.35683330     0.09600
C412        C  0.53357204  0.84472953  0.34798684    -0.17100
C413        C  0.22421266  0.86091149  0.79748690    -0.16300
C414        C  0.23576538  0.86174826  0.77204981     0.07800
C415        C  0.24935794  0.86170205  0.74226511     0.09600
C416        C  0.26089759  0.86080514  0.71682327    -0.17100
C417        C  0.22464272  0.68897729  0.62546973    -0.16300
C418        C  0.23612289  0.71443988  0.62459096     0.07800
C419        C  0.24960614  0.74426756  0.62460795     0.09600
C420        C  0.26106077  0.76974104  0.62551660    -0.17100
C421        C  0.33349848  0.84366090  0.54825024    -0.16300
C422        C  0.34243649  0.83784444  0.52239949     0.07800
C423        C  0.35117009  0.82914345  0.49204677     0.09600
C424        C  0.35698824  0.82027405  0.46617274    -0.17100
C425        C  0.28294224  0.09765847  0.73944442    -0.16300
C426        C  0.25742930  0.09682598  0.75083143     0.07800
C427        C  0.22755936  0.09689695  0.76423881     0.09600
C428        C  0.20206517  0.09783996  0.77566117    -0.17100
C429        C  0.35696249  0.02022510  0.66716685    -0.16300
C430        C  0.35109321  0.99442286  0.65813349     0.07800
C431        C  0.34230651  0.96414543  0.64924205     0.09600
C432        C  0.33335536  0.93833815  0.64327904    -0.17100
C433        C  0.72446546  0.19012806  0.38986794    -0.16300
C434        C  0.73589324  0.21561561  0.39074398     0.07800
C435        C  0.74932202  0.24546936  0.39072629     0.09600
C436        C  0.76074008  0.27096026  0.38983236    -0.17100
C437        C  0.72447640  0.09907460  0.29855488    -0.16300
C438        C  0.73594391  0.09818911  0.27307930     0.07800
C439        C  0.74944264  0.09815497  0.24325072     0.09600
C440        C  0.76092009  0.09899576  0.21777896    -0.17100
C441        C  0.62844751  0.93962495  0.34848770    -0.16300
C442        C  0.63435593  0.96542537  0.35750018     0.07800
C443        C  0.64319036  0.99570216  0.36634629     0.09600
C444        C  0.65217236  0.02150868  0.37226555    -0.17100
C445        C  0.70212809  0.21186736  0.62682060    -0.16300
C446        C  0.72756475  0.22340246  0.62591160     0.07800
C447        C  0.75736180  0.23695128  0.62586441     0.09600
C448        C  0.78281979  0.24844436  0.62669750    -0.17100
C449        C  0.45182902  0.11504229  0.66766219    -0.16300
C450        C  0.47766987  0.12098683  0.65879094     0.07800
C451        C  0.50796774  0.12988123  0.65007961     0.09600
C452        C  0.53376832  0.13893540  0.64424532    -0.17100
C453        C  0.62850130  0.13942851  0.54932184    -0.16300
C454        C  0.63439364  0.13056472  0.52346225     0.07800
C455        C  0.64319752  0.12189808  0.49311927     0.09600
C456        C  0.65216099  0.11612142  0.46726794    -0.17100
C457        C  0.37412092  0.74855945  0.29721342    -0.16300
C458        C  0.37498449  0.73715194  0.27170957     0.07800
C459        C  0.37498579  0.72369312  0.24186207     0.09600
C460        C  0.37412279  0.71221778  0.21638948    -0.17100
C461        C  0.20205292  0.74799714  0.12548137    -0.16300
C462        C  0.22754743  0.73657561  0.12453919     0.07800
C463        C  0.25741762  0.72316862  0.12446937     0.09600
C464        C  0.28293038  0.71178147  0.12530309    -0.17100
C465        C  0.72447761  0.27087941  0.12675959    -0.16300
C466        C  0.73594661  0.24540457  0.12587379     0.07800
C467        C  0.74944645  0.21557647  0.12583885     0.09600
C468        C  0.76092398  0.19010476  0.12667842    -0.17100
C469        C  0.76073348  0.36214767  0.29864641    -0.16300
C470        C  0.74931400  0.36304268  0.27315627     0.07800
C471        C  0.73588414  0.36306224  0.24330300     0.09600
C472        C  0.72445627  0.36218780  0.21781552    -0.17100
C473        C  0.70210569  0.59913960  0.23953570    -0.16300
C474        C  0.72754240  0.59822860  0.25107038     0.07800
C475        C  0.75734001  0.59817922  0.26461806     0.09600
C476        C  0.78279858  0.59901115  0.27610979    -0.17100
C477        C  0.61110060  0.69044117  0.23911704    -0.16300
C478        C  0.61025573  0.71591735  0.25058595     0.07800
C479        C  0.61029242  0.74573436  0.26410957     0.09600
C480        C  0.61118716  0.77118575  0.27562786    -0.17100
C481        C  0.53374938  0.61657043  0.16659715    -0.16300
C482        C  0.50794973  0.62240635  0.15754143     0.07800
C483        C  0.47765308  0.63111980  0.14864484     0.09600
C484        C  0.45181325  0.63999268  0.14269832    -0.17100
C485        C  0.65214860  0.43958688  0.14380496    -0.16300
C486        C  0.64318207  0.46543781  0.14957871     0.07800
C487        C  0.63437474  0.49578096  0.15824116     0.09600
C488        C  0.62848020  0.52164123  0.16710151    -0.17100
C489        C  0.28311401  0.36093544  0.77583211    -0.16300
C490        C  0.25764190  0.36186482  0.76437587     0.07800
C491        C  0.22780386  0.36194239  0.75091592     0.09600
C492        C  0.20231724  0.36113178  0.73948368    -0.17100
C493        C  0.37414276  0.18873655  0.73988905    -0.16300
C494        C  0.37500660  0.21420915  0.75136426     0.07800
C495        C  0.37500552  0.24405738  0.76482150     0.09600
C496        C  0.37414187  0.26956221  0.77622676    -0.17100
C497        C  0.22421035  0.76983730  0.88855324    -0.16300
C498        C  0.23576359  0.74440043  0.88938899     0.07800
C499        C  0.24935764  0.71461642  0.88934220     0.09600
C500        C  0.26089893  0.68917535  0.88844503    -0.17100
C501        C  0.22465174  0.59783129  0.71661457    -0.16300
C502        C  0.23613397  0.59695211  0.74207620     0.07800
C503        C  0.24961872  0.59696786  0.77190319     0.09600
C504        C  0.26107347  0.59787510  0.79737663    -0.17100
C505        C  0.33335608  0.61562948  0.96597972    -0.16300
C506        C  0.34230498  0.62158952  0.99178836     0.07800
C507        C  0.35108890  0.63047707  0.02206783     0.09600
C508        C  0.35695581  0.63950736  0.04787158    -0.17100
C509        C  0.35700956  0.43852975  0.84792197    -0.16300
C510        C  0.35118951  0.46440448  0.85678780     0.07800
C511        C  0.34245292  0.49475749  0.86548509     0.09600
C512        C  0.33351228  0.52060775  0.87129928    -0.17100
C513        C  0.78319163  0.21204861  0.88985105    -0.16300
C514        C  0.75772156  0.22352205  0.89079005     0.07800
C515        C  0.72787771  0.23698331  0.89084005     0.09600
C516        C  0.70238356  0.24840749  0.88998181    -0.17100
C517        C  0.61111884  0.21145736  0.71811592    -0.16300
C518        C  0.61027339  0.22292739  0.74359159     0.07800
C519        C  0.61030935  0.23645148  0.77340834     0.09600
C520        C  0.61120319  0.24796935  0.79885996    -0.17100
C521        C  0.62845300  0.32081830  0.96730476    -0.16300
C522        C  0.63435966  0.32982845  0.99310638     0.07800
C523        C  0.64319203  0.33867178  0.02338450     0.09600
C524        C  0.65217244  0.34458911  0.04919201    -0.17100
C525        C  0.53358602  0.32032888  0.87240120    -0.16300
C526        C  0.50775016  0.32917794  0.86640612     0.07800
C527        C  0.47745229  0.33783931  0.85746719     0.09600
C528        C  0.45164437  0.34362356  0.84840419    -0.17100
loop_ 
_geom_bond_atom_site_label_1 
_geom_bond_atom_site_label_2 
_geom_bond_distance 
_geom_bond_site_symmetry_2 
_ccdc_geom_bond_type 
O1            V9   1.901       .  S
O1           C11   1.263       .  A
O2            V9   1.901       .  S
O2           C12   1.263       .  A
O3            V9   1.901       .  S
O3           C13   1.263       .  A
O4            V9   1.901       .  S
O4           C14   1.263       .  A
O5           V10   1.902       .  S
O5           C14   1.263       .  A
O6           V10   1.901       .  S
O6           C13   1.263       .  A
O7           V10   1.901       .  S
O7           C12   1.263       .  A
O8           V10   1.902       .  S
O8           C11   1.263       .  A
V9           V10   2.090       .  T
C11         C521   1.437       .  S
C12         C520   1.436       .  S
C13         C516   1.436       .  S
C14         C525   1.437       .  S
O15          V23   1.902       .  S
O15          C25   1.263       .  A
O16          V23   1.901       .  S
O16          C26   1.263       .  A
O17          V23   1.901       .  S
O17          C27   1.263       .  A
O18          V23   1.902       .  S
O18          C28   1.263       .  A
O19          V24   1.901       .  S
O19          C28   1.263       .  A
O20          V24   1.901       .  S
O20          C27   1.263       .  A
O21          V24   1.901       .  S
O21          C26   1.263       .  A
O22          V24   1.901       .  S
O22          C25   1.263       .  A
V23          V24   2.090       .  T
C25         C505   1.437       .  S
C26         C504   1.436       .  S
C27         C500   1.436       .  S
C28         C512   1.437       .  S
O29          V37   1.901       .  S
O29          C39   1.263       .  A
O30          V37   1.901       .  S
O30          C40   1.263       .  A
O31          V37   1.901       .  S
O31          C41   1.263       .  A
O32          V37   1.901       .  S
O32          C42   1.263       .  A
O33          V38   1.902       .  S
O33          C42   1.263       .  A
O34          V38   1.901       .  S
O34          C41   1.263       .  A
O35          V38   1.901       .  S
O35          C40   1.263       .  A
O36          V38   1.902       .  S
O36          C39   1.263       .  A
V37          V38   2.090       .  T
C39         C509   1.437       .  S
C40         C496   1.436       .  S
C41         C489   1.436       .  S
C42         C528   1.437       .  S
O43          V51   1.901       .  S
O43          C53   1.263       .  A
O44          V51   1.901       .  S
O44          C54   1.263       .  A
O45          V51   1.901       .  S
O45          C55   1.263       .  A
O46          V51   1.901       .  S
O46          C56   1.263       .  A
O47          V52   1.902       .  S
O47          C56   1.263       .  A
O48          V52   1.901       .  S
O48          C55   1.263       .  A
O49          V52   1.901       .  S
O49          C54   1.263       .  A
O50          V52   1.902       .  S
O50          C53   1.263       .  A
V51          V52   2.090       .  T
C53         C481   1.437       .  S
C54         C473   1.436       .  S
C55         C477   1.436       .  S
C56         C488   1.437       .  S
O57          V65   1.902       .  S
O57          C67   1.263       .  A
O58          V65   1.901       .  S
O58          C68   1.263       .  A
O59          V65   1.901       .  S
O59          C69   1.263       .  A
O60          V65   1.902       .  S
O60          C70   1.263       .  A
O61          V66   1.901       .  S
O61          C70   1.263       .  A
O62          V66   1.901       .  S
O62          C69   1.263       .  A
O63          V66   1.901       .  S
O63          C68   1.263       .  A
O64          V66   1.901       .  S
O64          C67   1.263       .  A
V65          V66   2.090       .  T
C67         C485   1.437       .  S
C68         C465   1.436       .  S
C69         C472   1.436       .  S
C70         C524   1.437       .  S
O71          V79   1.902       .  S
O71          C81   1.263       .  A
O72          V79   1.901       .  S
O72          C82   1.263       .  A
O73          V79   1.901       .  S
O73          C83   1.263       .  A
O74          V79   1.902       .  S
O74          C84   1.263       .  A
O75          V80   1.901       .  S
O75          C84   1.263       .  A
O76          V80   1.901       .  S
O76          C83   1.263       .  A
O77          V80   1.901       .  S
O77          C82   1.263       .  A
O78          V80   1.901       .  S
O78          C81   1.263       .  A
V79          V80   2.090       .  T
C81         C508   1.437       .  S
C82         C460   1.436       .  S
C83         C464   1.436       .  S
C84         C484   1.437       .  S
O85          V93   1.902       .  S
O85          C95   1.263       .  A
O86          V93   1.901       .  S
O86          C96   1.263       .  A
O87          V93   1.901       .  S
O87          C97   1.263       .  A
O88          V93   1.902       .  S
O88          C98   1.263       .  A
O89          V94   1.901       .  S
O89          C98   1.263       .  A
O90          V94   1.901       .  S
O90          C97   1.263       .  A
O91          V94   1.901       .  S
O91          C96   1.263       .  A
O92          V94   1.901       .  S
O92          C95   1.263       .  A
V93          V94   2.090       .  T
C95         C452   1.437       .  S
C96         C445   1.436       .  S
C97         C517   1.436       .  S
C98         C453   1.437       .  S
O99         V107   1.901       .  S
O99         C109   1.263       .  A
O100        V107   1.901       .  S
O100        C110   1.263       .  A
O101        V107   1.901       .  S
O101        C111   1.263       .  A
O102        V107   1.901       .  S
O102        C112   1.263       .  A
O103        V108   1.902       .  S
O103        C112   1.263       .  A
O104        V108   1.901       .  S
O104        C111   1.263       .  A
O105        V108   1.901       .  S
O105        C110   1.263       .  A
O106        V108   1.902       .  S
O106        C109   1.263       .  A
V107        V108   2.090       .  T
C109        C456   1.437       .  S
C110        C437   1.436       .  S
C111        C433   1.436       .  S
C112        C444   1.437       .  S
O113        V121   1.901       .  S
O113        C123   1.263       .  A
O114        V121   1.901       .  S
O114        C124   1.263       .  A
O115        V121   1.901       .  S
O115        C125   1.263       .  A
O116        V121   1.901       .  S
O116        C126   1.263       .  A
O117        V122   1.902       .  S
O117        C126   1.263       .  A
O118        V122   1.901       .  S
O118        C125   1.263       .  A
O119        V122   1.901       .  S
O119        C124   1.263       .  A
O120        V122   1.902       .  S
O120        C123   1.263       .  A
V121        V122   2.090       .  T
C123        C429   1.437       .  S
C124        C493   1.436       .  S
C125        C425   1.436       .  S
C126        C449   1.437       .  S
O127        V135   1.901       .  S
O127        C137   1.263       .  A
O128        V135   1.901       .  S
O128        C138   1.263       .  A
O129        V135   1.901       .  S
O129        C139   1.263       .  A
O130        V135   1.901       .  S
O130        C140   1.263       .  A
O131        V136   1.902       .  S
O131        C140   1.263       .  A
O132        V136   1.901       .  S
O132        C139   1.263       .  A
O133        V136   1.901       .  S
O133        C138   1.263       .  A
O134        V136   1.902       .  S
O134        C137   1.263       .  A
V135        V136   2.090       .  T
C137        C432   1.437       .  S
C138        C420   1.436       .  S
C139        C416   1.436       .  S
C140        C421   1.437       .  S
O141        V149   1.902       .  S
O141        C151   1.263       .  A
O142        V149   1.901       .  S
O142        C152   1.263       .  A
O143        V149   1.901       .  S
O143        C153   1.263       .  A
O144        V149   1.902       .  S
O144        C154   1.263       .  A
O145        V150   1.901       .  S
O145        C154   1.263       .  A
O146        V150   1.901       .  S
O146        C153   1.263       .  A
O147        V150   1.901       .  S
O147        C152   1.263       .  A
O148        V150   1.901       .  S
O148        C151   1.263       .  A
V149        V150   2.090       .  T
C151        C441   1.437       .  S
C152        C480   1.436       .  S
C153        C405   1.436       .  S
C154        C412   1.437       .  S
O155        V163   1.902       .  S
O155        C165   1.263       .  A
O156        V163   1.901       .  S
O156        C166   1.263       .  A
O157        V163   1.901       .  S
O157        C167   1.263       .  A
O158        V163   1.902       .  S
O158        C168   1.263       .  A
O159        V164   1.901       .  S
O159        C168   1.263       .  A
O160        V164   1.901       .  S
O160        C167   1.263       .  A
O161        V164   1.901       .  S
O161        C166   1.263       .  A
O162        V164   1.901       .  S
O162        C165   1.263       .  A
V163        V164   2.090       .  T
C165        C424   1.437       .  S
C166        C457   1.436       .  S
C167        C401   1.436       .  S
C168        C409   1.437       .  S
O169        V177   1.901       .  S
O169        C179   1.263       .  A
O170        V177   1.901       .  S
O170        C180   1.263       .  A
O171        V177   1.901       .  S
O171        C181   1.263       .  A
O172        V177   1.901       .  S
O172        C182   1.263       .  A
O173        V178   1.902       .  S
O173        C182   1.263       .  A
O174        V178   1.901       .  S
O174        C181   1.263       .  A
O175        V178   1.901       .  S
O175        C180   1.263       .  A
O176        V178   1.901       .  S
O176        C179   1.263       .  A
V177        V178   2.090       .  T
C179        C397   1.437       .  S
C180        C461   1.436       .  S
C181        C389   1.436       .  S
C182        C393   1.437       .  S
O183        V191   1.901       .  S
O183        C193   1.263       .  A
O184        V191   1.901       .  S
O184        C194   1.263       .  A
O185        V191   1.901       .  S
O185        C195   1.263       .  A
O186        V191   1.901       .  S
O186        C196   1.263       .  A
O187        V192   1.902       .  S
O187        C196   1.263       .  A
O188        V192   1.901       .  S
O188        C195   1.263       .  A
O189        V192   1.901       .  S
O189        C194   1.263       .  A
O190        V192   1.902       .  S
O190        C193   1.263       .  A
V191        V192   2.090       .  T
C193        C400   1.437       .  S
C194        C408   1.436       .  S
C195        C384   1.436       .  S
C196        C385   1.437       .  S
O197        V205   1.902       .  S
O197        C207   1.263       .  A
O198        V205   1.901       .  S
O198        C208   1.263       .  A
O199        V205   1.901       .  S
O199        C209   1.263       .  A
O200        V205   1.902       .  S
O200        C210   1.263       .  A
O201        V206   1.901       .  S
O201        C210   1.263       .  A
O202        V206   1.901       .  S
O202        C209   1.263       .  A
O203        V206   1.901       .  S
O203        C208   1.263       .  A
O204        V206   1.901       .  S
O204        C207   1.263       .  A
V205        V206   2.090       .  T
C207        C396   1.437       .  S
C208        C413   1.436       .  S
C209        C497   1.436       .  S
C210        C377   1.437       .  S
O211        V219   1.901       .  S
O211        C221   1.263       .  A
O212        V219   1.901       .  S
O212        C222   1.263       .  A
O213        V219   1.901       .  S
O213        C223   1.263       .  A
O214        V219   1.902       .  S
O214        C224   1.263       .  A
O215        V220   1.901       .  S
O215        C224   1.263       .  A
O216        V220   1.901       .  S
O216        C223   1.263       .  A
O217        V220   1.901       .  S
O217        C222   1.263       .  A
O218        V220   1.901       .  S
O218        C221   1.263       .  A
V219        V220   2.090       .  T
C221        C376   1.437       .  S
C222        C428   1.436       .  S
C223        C369   1.436       .  S
C224        C380   1.437       .  S
O225        V233   1.901       .  S
O225        C235   1.263       .  A
O226        V233   1.901       .  S
O226        C236   1.263       .  A
O227        V233   1.901       .  S
O227        C237   1.263       .  A
O228        V233   1.901       .  S
O228        C238   1.263       .  A
O229        V234   1.902       .  S
O229        C238   1.263       .  A
O230        V234   1.901       .  S
O230        C237   1.263       .  A
O231        V234   1.901       .  S
O231        C236   1.263       .  A
O232        V234   1.902       .  S
O232        C235   1.263       .  A
V233        V234   2.090       .  T
C235        C368   1.437       .  S
C236        C440   1.436       .  S
C237        C468   1.436       .  S
C238        C388   1.437       .  S
O239        V247   1.902       .  S
O239        C249   1.263       .  A
O240        V247   1.901       .  S
O240        C250   1.263       .  A
O241        V247   1.901       .  S
O241        C251   1.263       .  A
O242        V247   1.902       .  S
O242        C252   1.263       .  A
O243        V248   1.901       .  S
O243        C252   1.263       .  A
O244        V248   1.901       .  S
O244        C251   1.263       .  A
O245        V248   1.901       .  S
O245        C250   1.263       .  A
O246        V248   1.901       .  S
O246        C249   1.263       .  A
V247        V248   2.090       .  T
C249        C373   1.437       .  S
C250        C513   1.436       .  S
C251        C364   1.436       .  S
C252        C365   1.437       .  S
O253        V261   1.901       .  S
O253        C263   1.263       .  A
O254        V261   1.901       .  S
O254        C264   1.263       .  A
O255        V261   1.901       .  S
O255        C265   1.263       .  A
O256        V261   1.901       .  S
O256        C266   1.263       .  A
O257        V262   1.902       .  S
O257        C266   1.263       .  A
O258        V262   1.901       .  S
O258        C265   1.263       .  A
O259        V262   1.901       .  S
O259        C264   1.263       .  A
O260        V262   1.902       .  S
O260        C263   1.263       .  A
V261        V262   2.090       .  T
C263        C357   1.437       .  S
C264        C417   1.436       .  S
C265        C501   1.436       .  S
C266        C356   1.437       .  S
O267        V275   1.902       .  S
O267        C277   1.263       .  A
O268        V275   1.901       .  S
O268        C278   1.263       .  A
O269        V275   1.901       .  S
O269        C279   1.263       .  A
O270        V275   1.902       .  S
O270        C280   1.263       .  A
O271        V276   1.901       .  S
O271        C280   1.263       .  A
O272        V276   1.901       .  S
O272        C279   1.263       .  A
O273        V276   1.901       .  S
O273        C278   1.263       .  A
O274        V276   1.901       .  S
O274        C277   1.263       .  A
V275        V276   2.090       .  T
C277        C349   1.437       .  S
C278        C492   1.436       .  S
C279        C372   1.436       .  S
C280        C360   1.437       .  S
O281        V289   1.901       .  S
O281        C291   1.263       .  A
O282        V289   1.901       .  S
O282        C292   1.263       .  A
O283        V289   1.901       .  S
O283        C293   1.263       .  A
O284        V289   1.901       .  S
O284        C294   1.263       .  A
O285        V290   1.902       .  S
O285        C294   1.263       .  A
O286        V290   1.901       .  S
O286        C293   1.263       .  A
O287        V290   1.901       .  S
O287        C292   1.263       .  A
O288        V290   1.902       .  S
O288        C291   1.263       .  A
V289        V290   2.090       .  T
C291        C348   1.437       .  S
C292        C404   1.436       .  S
C293        C392   1.436       .  S
C294        C353   1.437       .  S
O295        V303   1.902       .  S
O295        C305   1.263       .  A
O296        V303   1.901       .  S
O296        C306   1.263       .  A
O297        V303   1.901       .  S
O297        C307   1.263       .  A
O298        V303   1.902       .  S
O298        C308   1.263       .  A
O299        V304   1.901       .  S
O299        C308   1.263       .  A
O300        V304   1.901       .  S
O300        C307   1.263       .  A
O301        V304   1.901       .  S
O301        C306   1.263       .  A
O302        V304   1.901       .  S
O302        C305   1.263       .  A
V303        V304   2.090       .  T
C305        C352   1.437       .  S
C306        C448   1.436       .  S
C307        C361   1.436       .  S
C308        C341   1.437       .  S
O309        V317   1.901       .  S
O309        C319   1.263       .  A
O310        V317   1.901       .  S
O310        C320   1.263       .  A
O311        V317   1.901       .  S
O311        C321   1.263       .  A
O312        V317   1.901       .  S
O312        C322   1.263       .  A
O313        V318   1.902       .  S
O313        C322   1.263       .  A
O314        V318   1.901       .  S
O314        C321   1.263       .  A
O315        V318   1.901       .  S
O315        C320   1.263       .  A
O316        V318   1.902       .  S
O316        C319   1.263       .  A
V317        V318   2.090       .  T
C319        C345   1.437       .  S
C320        C476   1.436       .  S
C321        C381   1.436       .  S
C322        C337   1.437       .  S
O323        V331   1.902       .  S
O323        C333   1.263       .  A
O324        V331   1.901       .  S
O324        C334   1.263       .  A
O325        V331   1.901       .  S
O325        C335   1.263       .  A
O326        V331   1.902       .  S
O326        C336   1.263       .  A
O327        V332   1.901       .  S
O327        C336   1.263       .  A
O328        V332   1.901       .  S
O328        C335   1.263       .  A
O329        V332   1.901       .  S
O329        C334   1.263       .  A
O330        V332   1.901       .  S
O330        C333   1.263       .  A
V331        V332   2.090       .  T
C333        C340   1.437       .  S
C334        C436   1.436       .  S
C335        C469   1.436       .  S
C336        C344   1.437       .  S
C337        C338   1.207       .  T
C338        C339   1.414       .  S
C339        C340   1.207       .  T
C341        C342   1.207       .  T
C342        C343   1.414       .  S
C343        C344   1.207       .  T
C345        C346   1.207       .  T
C346        C347   1.414   1_655  S
C347        C348   1.207       .  T
C349        C350   1.207       .  T
C350        C351   1.414   1_455  S
C351        C352   1.207       .  T
C353        C354   1.207       .  T
C354        C355   1.414       .  S
C355        C356   1.207       .  T
C357        C358   1.207       .  T
C358        C359   1.414       .  S
C359        C360   1.207       .  T
C361        C362   1.206       .  T
C362        C363   1.413       .  S
C363        C364   1.206       .  T
C365        C366   1.207       .  T
C366        C367   1.414   1_556  S
C367        C368   1.207       .  T
C369        C370   1.206       .  T
C370        C371   1.413       .  S
C371        C372   1.206       .  T
C373        C374   1.207       .  T
C374        C375   1.414   1_655  S
C375        C376   1.207       .  T
C377        C378   1.207       .  T
C378        C379   1.414       .  S
C379        C380   1.207   1_565  T
C381        C382   1.206       .  T
C382        C383   1.413       .  S
C383        C384   1.206       .  T
C385        C386   1.207       .  T
C386        C387   1.414       .  S
C387        C388   1.207   1_565  T
C389        C390   1.206       .  T
C390        C391   1.413       .  S
C391        C392   1.206       .  T
C393        C394   1.207       .  T
C394        C395   1.414   1_554  S
C395        C396   1.207       .  T
C397        C398   1.207       .  T
C398        C399   1.414   1_455  S
C399        C400   1.207       .  T
C401        C402   1.206       .  T
C402        C403   1.413       .  S
C403        C404   1.206       .  T
C405        C406   1.206       .  T
C406        C407   1.413       .  S
C407        C408   1.206       .  T
C409        C410   1.207       .  T
C410        C411   1.414       .  S
C411        C412   1.207       .  T
C413        C414   1.206       .  T
C414        C415   1.413       .  S
C415        C416   1.206       .  T
C417        C418   1.206       .  T
C418        C419   1.413       .  S
C419        C420   1.206       .  T
C421        C422   1.207       .  T
C422        C423   1.414       .  S
C423        C424   1.207       .  T
C425        C426   1.206       .  T
C426        C427   1.413       .  S
C427        C428   1.206       .  T
C429        C430   1.207   1_545  T
C430        C431   1.414       .  S
C431        C432   1.207       .  T
C433        C434   1.206       .  T
C434        C435   1.413       .  S
C435        C436   1.206       .  T
C437        C438   1.206       .  T
C438        C439   1.413       .  S
C439        C440   1.206       .  T
C441        C442   1.207       .  T
C442        C443   1.414       .  S
C443        C444   1.207   1_565  T
C445        C446   1.206       .  T
C446        C447   1.413       .  S
C447        C448   1.206       .  T
C449        C450   1.207       .  T
C450        C451   1.414       .  S
C451        C452   1.207       .  T
C453        C454   1.207       .  T
C454        C455   1.414       .  S
C455        C456   1.207       .  T
C457        C458   1.206       .  T
C458        C459   1.413       .  S
C459        C460   1.206       .  T
C461        C462   1.206       .  T
C462        C463   1.413       .  S
C463        C464   1.206       .  T
C465        C466   1.206       .  T
C466        C467   1.413       .  S
C467        C468   1.206       .  T
C469        C470   1.206       .  T
C470        C471   1.413       .  S
C471        C472   1.206       .  T
C473        C474   1.206       .  T
C474        C475   1.413       .  S
C475        C476   1.206       .  T
C477        C478   1.206       .  T
C478        C479   1.413       .  S
C479        C480   1.206       .  T
C481        C482   1.207       .  T
C482        C483   1.414       .  S
C483        C484   1.207       .  T
C485        C486   1.207       .  T
C486        C487   1.414       .  S
C487        C488   1.207       .  T
C489        C490   1.206       .  T
C490        C491   1.413       .  S
C491        C492   1.206       .  T
C493        C494   1.206       .  T
C494        C495   1.413       .  S
C495        C496   1.206       .  T
C497        C498   1.206       .  T
C498        C499   1.413       .  S
C499        C500   1.206       .  T
C501        C502   1.206       .  T
C502        C503   1.413       .  S
C503        C504   1.206       .  T
C505        C506   1.207       .  T
C506        C507   1.414   1_556  S
C507        C508   1.207       .  T
C509        C510   1.207       .  T
C510        C511   1.414       .  S
C511        C512   1.207       .  T
C513        C514   1.206       .  T
C514        C515   1.413       .  S
C515        C516   1.206       .  T
C517        C518   1.206       .  T
C518        C519   1.413       .  S
C519        C520   1.206       .  T
C521        C522   1.207       .  T
C522        C523   1.414   1_556  S
C523        C524   1.207       .  T
C525        C526   1.207       .  T
C526        C527   1.414       .  S
C527        C528   1.207       .  T
