geometry optimzed in LAMMPS
_audit_creation_date              2020-12-01 
_audit_creation_method            'lammps2cif' 
_symmetry_space_group_name_H-M    'P1' 
_symmetry_Int_Tables_number       1 
_symmetry_cell_setting            triclinic 
loop_ 
_symmetry_equiv_pos_as_xyz 
  x,y,z 
_cell_length_a                    43.25630776 
_cell_length_b                    42.090493812662125 
_cell_length_c                    39.87198448284553 
_cell_angle_alpha                 88.98104544201118 
_cell_angle_beta                  89.56798803252188 
_cell_angle_gamma                 90.32724309083672 
loop_ 
_atom_site_label 
_atom_site_type_symbol 
_atom_site_fract_x 
_atom_site_fract_y 
_atom_site_fract_z 
_atom_site_charge 
O1          O  0.33125507  0.02362840  0.64626286    -0.73600
O2          O  0.42630834  0.01548285  0.63057440    -0.74500
O3          O  0.37192468  0.01203546  0.59165820    -0.63200
O4          O  0.38863939  0.03512429  0.68480511    -0.71600
O5          O  0.39337445  0.98480701  0.70047987    -0.71100
O6          O  0.36385652  0.45942520  0.60371333    -0.62400
O7          O  0.41952879  0.46104652  0.63833545    -0.74900
O8          O  0.33325535  0.47256071  0.66555857    -0.73700
Cu9        Cu  0.37933073  0.02352724  0.63800300     1.04600
Cu10       Cu  0.37719215  0.46705940  0.65244211     1.04300
C11         C  0.31712006  0.99864749  0.65800557     0.92600
C12         C  0.43717046  0.98712776  0.63354740     0.91800
C13         C  0.36519691  0.48203836  0.58151004     0.83900
C14         C  0.39854048  0.01454679  0.70572546     0.90200
O15         O  0.49421903  0.08145298  0.81860456    -0.73600
O16         O  0.02205713  0.11798965  0.91002386    -0.74500
O17         O  0.52130888  0.05899470  0.87874010    -0.63200
O18         O  0.50165545  0.14445015  0.84745298    -0.71600
O19         O  0.45478362  0.14326463  0.86953516    -0.71100
O20         O  0.47333882  0.04862524  0.89479082    -0.62400
O21         O  0.47411908  0.10867281  0.92755121    -0.74900
O22         O  0.44657566  0.08110479  0.83900838    -0.73700
Cu23       Cu  0.51132323  0.10120038  0.86279161     1.04600
Cu24       Cu  0.46039528  0.09539418  0.88327724     1.04300
C25         C  0.46537412  0.07385391  0.81586129     0.92600
C26         C  0.50159159  0.11717233  0.93372929     0.91800
C27         C  0.50145771  0.03946044  0.89006797     0.83900
C28         C  0.47699953  0.15890892  0.85493068     0.90200
O29         O  0.17539661  0.43806847  0.65356070    -0.73600
O30         O  0.08323795  0.43085725  0.63028965    -0.74500
O31         O  0.13915377  0.44169477  0.59527580    -0.63200
O32         O  0.11826549  0.42112435  0.68870419    -0.71600
O33         O  0.11093764  0.47126336  0.70208172    -0.71100
O34         O  0.13181250  0.49313490  0.60244014    -0.62400
O35         O  0.07908130  0.48210984  0.64154276    -0.74900
O36         O  0.16763731  0.48896876  0.66375551    -0.73700
Cu37       Cu  0.12948744  0.43123964  0.64192646     1.04600
Cu38       Cu  0.12259264  0.48575975  0.65312514     1.04300
C39         C  0.18609695  0.46578497  0.66044371     0.92600
C40         C  0.06707514  0.45633660  0.63195506     0.91800
C41         C  0.13627616  0.46943475  0.58298340     0.83900
C42         C  0.10913945  0.44139473  0.70974224     0.90200
O43         O  0.48855922  0.34336781  0.91988240    -0.73600
O44         O  0.01524841  0.37210842  0.82456791    -0.74500
O45         O  0.99160832  0.31315442  0.85654499    -0.63200
O46         O  0.00584001  0.40025885  0.88735579    -0.71600
O47         O  0.05522793  0.39137018  0.89854196    -0.71100
O48         O  0.03885732  0.29850787  0.87088578    -0.62400
O49         O  0.06237323  0.35771423  0.83850340    -0.74900
O50         O  0.03739991  0.33410952  0.93122281    -0.73700
Cu51       Cu  0.99867754  0.35730519  0.87141701     1.04600
Cu52       Cu  0.05018040  0.34466312  0.88488844     1.04300
C53         C  0.00959065  0.33606144  0.94123635     0.92600
C54         C  0.04438547  0.37146128  0.81778169     0.91800
C55         C  0.01139344  0.29133996  0.86105635     0.83900
C56         C  0.03185686  0.41007905  0.89741490     0.90200
O57         O  0.04393449  0.14828882  0.15048191    -0.73600
O58         O  0.04128115  0.05448978  0.12011556    -0.74500
O59         O  0.03685170  0.11533964  0.09022988    -0.63200
O60         O  0.05585741  0.08640264  0.18144125    -0.71600
O61         O  0.00692498  0.08046620  0.19625422    -0.71100
O62         O  0.48641814  0.11120804  0.09867765    -0.62400
O63         O  0.99201649  0.05429024  0.13460146    -0.74900
O64         O  0.99424000  0.14236098  0.16314034    -0.73700
Cu65       Cu  0.04624756  0.10140823  0.13561777     1.04600
Cu66       Cu  0.99315980  0.09749687  0.14898850     1.04300
C67         C  0.01792705  0.16010554  0.15983102     0.92600
C68         C  0.01471814  0.04047293  0.12125784     0.91800
C69         C  0.00977415  0.11512477  0.07856152     0.83900
C70         C  0.03585839  0.07590606  0.20231863     0.90200
O71         O  0.16232182  0.02322108  0.37654051    -0.73600
O72         O  0.06756727  0.01189336  0.39580180    -0.74500
O73         O  0.12389819  0.00788786  0.43220997    -0.63200
O74         O  0.10278567  0.03506756  0.34032219    -0.71600
O75         O  0.10208872  0.98544863  0.32276723    -0.71100
O76         O  0.12958989  0.45911269  0.41619035    -0.62400
O77         O  0.07491104  0.46314650  0.37961096    -0.74900
O78         O  0.16213946  0.47561154  0.35601308    -0.73700
Cu79       Cu  0.11427941  0.02147462  0.38652989     1.04600
Cu80       Cu  0.11783208  0.46960816  0.36736615     1.04300
C81         C  0.17677443  0.99839886  0.36611556     0.92600
C82         C  0.05654868  0.98379591  0.39102648     0.91800
C83         C  0.12995988  0.48082764  0.43852030     0.83900
C84         C  0.09558116  0.01508068  0.31814394     0.90200
O85         O  0.36664124  0.49478163  0.41631587    -0.73600
O86         O  0.38582271  0.46916146  0.31821729    -0.74500
O87         O  0.32993902  0.49137826  0.35615215    -0.63200
O88         O  0.41842870  0.47987440  0.37793344    -0.71600
O89         O  0.41110539  0.42950106  0.39348932    -0.71100
O90         O  0.31972226  0.44084219  0.36717770    -0.62400
O91         O  0.37684538  0.41977832  0.33503496    -0.74900
O92         O  0.35465457  0.44428118  0.42597602    -0.73700
Cu93       Cu  0.37507507  0.48568162  0.36625607     1.04600
Cu94       Cu  0.36497365  0.43197470  0.38053009     1.04300
C95         C  0.35984836  0.47181545  0.43689227     0.92600
C96         C  0.38721904  0.43902474  0.31281557     0.91800
C97         C  0.31014197  0.46912601  0.36029933     0.83900
C98         C  0.42882581  0.45398439  0.38982605     0.90200
O99         O  0.45281321  0.30311280  0.15469110    -0.73600
O100        O  0.45652757  0.39715336  0.12366176    -0.74500
O101        O  0.46516352  0.33763414  0.09587763    -0.63200
O102        O  0.43719183  0.36473736  0.18438194    -0.71600
O103        O  0.48461980  0.36777341  0.20447146    -0.71100
O104        O  0.51431595  0.34492803  0.10838407    -0.62400
O105        O  0.50330470  0.39939059  0.14523808    -0.71700
O106        O  0.50171681  0.30883337  0.16980466    -0.73700
Cu107      Cu  0.45109083  0.35040513  0.13970349     1.04600
Cu108      Cu  0.50261914  0.35491642  0.15803029     1.04300
C109        C  0.47862111  0.29095646  0.16420391     0.92600
C110        C  0.48221758  0.41205936  0.12781194     0.91800
C111        C  0.49306847  0.34011055  0.08649064     0.83900
C112        C  0.45532485  0.37234947  0.20789547     0.90200
C113        C  0.39410514  0.39351340  0.27264814    -0.02500
C114        C  0.40327789  0.42438317  0.28296649     0.07200
C115        C  0.43158282  0.43689028  0.26988018    -0.02600
C116        C  0.44993393  0.41906906  0.24720743    -0.02600
C117        C  0.44082084  0.38818132  0.23763009     0.07300
C118        C  0.41308471  0.37545011  0.25123280    -0.02800
Br119      Br  0.40157859  0.33207743  0.24147398    -0.01300
Br120      Br  0.35467570  0.37541169  0.28661005    -0.01400
Br121      Br  0.48742999  0.43745737  0.22871059    -0.01400
Br122      Br  0.44678621  0.47762422  0.28428127    -0.01300
C123        C  0.01130176  0.45597485  0.36690758    -0.02500
C124        C  0.02385633  0.47652814  0.39130183     0.07200
C125        C  0.50509290  0.98254506  0.42217186    -0.02600
C126        C  0.47439223  0.47418910  0.42115954    -0.02600
C127        C  0.46224148  0.45366507  0.39675823     0.07300
C128        C  0.98170605  0.44265883  0.37136951    -0.02800
Br129      Br  0.96711657  0.41007601  0.34188685    -0.01300
Br130      Br  0.03277557  0.44832165  0.32507316    -0.01400
Br131      Br  0.44744472  0.98661631  0.45974073    -0.01400
Br132      Br  0.52301671  0.00535486  0.45879323    -0.01300
C133        C  0.26372774  0.50208428  0.33968925    -0.02500
C134        C  0.27604097  0.47727074  0.36039474     0.07200
C135        C  0.25611496  0.46295256  0.38465185    -0.02600
C136        C  0.22463968  0.47159034  0.38665676    -0.02600
C137        C  0.21216018  0.49588166  0.36574836     0.07300
C138        C  0.23145984  0.01028643  0.34394734    -0.02800
Br139      Br  0.21511840  0.04390024  0.31599365    -0.01300
Br140      Br  0.28841845  0.02122429  0.30664385    -0.01400
Br141      Br  0.19881001  0.44946516  0.41903400    -0.01400
Br142      Br  0.27182987  0.43277736  0.41753427    -0.01300
C143        C  0.03056747  0.48417254  0.10465008    -0.02500
C144        C  0.00803664  0.00786984  0.10887372     0.07200
C145        C  0.47667286  0.99882005  0.10373616    -0.02600
C146        C  0.46714615  0.46708957  0.10679741    -0.02600
C147        C  0.48973473  0.44382244  0.11271877     0.07300
C148        C  0.02130665  0.45204481  0.10656247    -0.02800
Br149      Br  0.05203343  0.41955157  0.09946445    -0.01300
Br150      Br  0.07363820  0.49508551  0.09917870    -0.01400
Br151      Br  0.42367153  0.45656290  0.10741044    -0.01400
Br152      Br  0.44646076  0.02978196  0.08916778    -0.01300
C153        C  0.99104386  0.23926639  0.19449834    -0.02500
C154        C  0.48454183  0.25606445  0.16439569     0.07200
C155        C  0.49197985  0.24178296  0.13361973    -0.02600
C156        C  0.50757813  0.21249667  0.13290383    -0.02600
C157        C  0.01264124  0.19489693  0.16270385     0.07300
C158        C  0.00384697  0.20829729  0.19359011    -0.02800
Br159      Br  0.01019160  0.18437569  0.23455952    -0.01300
Br160      Br  0.98119909  0.25839729  0.23674609    -0.01400
Br161      Br  0.52227547  0.19651610  0.09070056    -0.01400
Br162      Br  0.47993293  0.26167505  0.09194211    -0.01300
C163        C  0.09073832  0.02491096  0.25577878    -0.02500
C164        C  0.07813473  0.02713628  0.28810747     0.07200
C165        C  0.04949869  0.04321937  0.29210006    -0.02600
C166        C  0.03476836  0.05836638  0.26441141    -0.02600
C167        C  0.04802321  0.05701474  0.23201030     0.07300
C168        C  0.07522649  0.03832779  0.22789689    -0.02800
Br169      Br  0.09098345  0.02856291  0.18387626    -0.01300
Br170      Br  0.12908798  0.50223946  0.24727619    -0.01400
Br171      Br  0.99704221  0.08169845  0.27145247    -0.01400
Br172      Br  0.02991957  0.04463505  0.33562684    -0.01300
C173        C  0.02541139  0.31840087  0.00019613    -0.02500
C174        C  0.00321220  0.33265986  0.97829869     0.07200
C175        C  0.47760722  0.34820689  0.99280843    -0.02600
C176        C  0.47616605  0.35255954  0.02770795    -0.02600
C177        C  0.49854343  0.33881253  0.04946846     0.07300
C178        C  0.02311635  0.32167078  0.03543256    -0.02800
Br179      Br  0.05347071  0.30216546  0.06441037    -0.01300
Br180      Br  0.05839697  0.29221891  0.98303834    -0.01400
Br181      Br  0.44414127  0.38025104  0.04475704    -0.01400
Br182      Br  0.44358523  0.36394211  0.96591477    -0.01300
C183        C  0.11907836  0.44936725  0.52715512    -0.02500
C184        C  0.13601488  0.47217206  0.54571556     0.07200
C185        C  0.15357548  0.49544522  0.52830075    -0.02600
C186        C  0.15415685  0.49603405  0.49290259    -0.02600
C187        C  0.13606151  0.47424716  0.47452462     0.07300
C188        C  0.11911277  0.45049647  0.49184476    -0.02800
Br189      Br  0.09383014  0.42083814  0.46741741    -0.01300
Br190      Br  0.09332481  0.41752320  0.54941952    -0.01400
Br191      Br  0.18165558  0.02383571  0.47064521    -0.01400
Br192      Br  0.17703784  0.52641247  0.55272645    -0.01300
C193        C  0.04696772  0.41782321  0.77474174    -0.02500
C194        C  0.05914054  0.38886968  0.78798091     0.07200
C195        C  0.08904293  0.37970349  0.77681746    -0.02600
C196        C  0.10687466  0.39966967  0.75527491    -0.02600
C197        C  0.09453038  0.42798347  0.74140196     0.07300
C198        C  0.06459753  0.43722025  0.75190607    -0.02800
Br199      Br  0.04711407  0.47617690  0.73438253    -0.01300
Br200      Br  0.00581251  0.43128240  0.78671725    -0.01400
Br201      Br  0.14927405  0.38833622  0.74528340    -0.01400
Br202      Br  0.10538553  0.33812476  0.78801793    -0.01300
C203        C  0.02990511  0.10303913  0.98611844    -0.02500
C204        C  0.50861525  0.12284174  0.96965672     0.07200
C205        C  0.48778914  0.14083126  0.98921235    -0.02600
C206        C  0.48677040  0.13754597  0.02458394    -0.02600
C207        C  0.00765209  0.11720488  0.04110326     0.07300
C208        C  0.02941130  0.10006940  0.02141451    -0.02800
Br209      Br  0.05722724  0.06960146  0.04182079    -0.01300
Br210      Br  0.05816198  0.07759051  0.96018226    -0.01400
Br211      Br  0.45638062  0.16056570  0.04995643    -0.01400
Br212      Br  0.46077145  0.17063346  0.96735198    -0.01300
C213        C  0.50104476  0.48847343  0.92231814    -0.02500
C214        C  0.51267407  0.00637582  0.89627468     0.07200
C215        C  0.53520354  0.49458108  0.87352533    -0.02600
C216        C  0.04705867  0.46397006  0.87958038    -0.02600
C217        C  0.03366306  0.44429690  0.90438285     0.07300
C218        C  0.01209868  0.45721592  0.92702404    -0.02800
Br219      Br  0.99770508  0.43139518  0.96434750    -0.01300
Br220      Br  0.47425691  0.00542071  0.95658245    -0.01400
Br221      Br  0.08018700  0.44760120  0.85214497    -0.01400
Br222      Br  0.55058015  0.01600438  0.83476110    -0.01300
C223        C  0.01162548  0.23887026  0.83075635    -0.02500
C224        C  0.00054847  0.25775368  0.85696206     0.07200
C225        C  0.47536967  0.24605774  0.87673834    -0.02600
C226        C  0.46338944  0.21503959  0.87223120    -0.02600
C227        C  0.47762541  0.19446628  0.84935074     0.07300
C228        C  0.99959510  0.20786635  0.82635543    -0.02800
Br229      Br  0.01122918  0.18463898  0.78689693    -0.01300
Br230      Br  0.04291560  0.25566201  0.80056404    -0.01400
Br231      Br  0.42600374  0.20207417  0.89535059    -0.01400
Br232      Br  0.45811379  0.27178350  0.91173825    -0.01300
C233        C  0.37396022  0.45029621  0.49373327    -0.02500
C234        C  0.36016159  0.47485774  0.47399578     0.07200
C235        C  0.34583229  0.50035412  0.49013656    -0.02600
C236        C  0.34536226  0.50142841  0.52550741    -0.02600
C237        C  0.35977957  0.47719443  0.54515205     0.07300
C238        C  0.37345333  0.45134700  0.52896483    -0.02800
Br239      Br  0.39428725  0.92031481  0.55732089    -0.01300
Br240      Br  0.39627652  0.41577239  0.47321056    -0.01400
Br241      Br  0.32385176  0.53605110  0.54666347    -0.01400
Br242      Br  0.32629141  0.53355315  0.46396282    -0.01300
C243        C  0.48999339  0.99126235  0.60580588    -0.02500
C244        C  0.47098052  0.47568542  0.62889023     0.07200
C245        C  0.48302702  0.45224570  0.65140029    -0.02600
C246        C  0.01372380  0.44199342  0.64829654    -0.02600
C247        C  0.03368032  0.45717194  0.62523071     0.07300
C248        C  0.02188986  0.48021105  0.60248992    -0.02800
Br249      Br  0.04886022  0.00127415  0.57158771    -0.01300
Br250      Br  0.47374883  0.01953018  0.57174459    -0.01400
Br251      Br  0.02926888  0.40874842  0.67759972    -0.01400
Br252      Br  0.45913056  0.43578738  0.68925009    -0.01300
C253        C  0.26471800  0.00012653  0.68716734    -0.02500
C254        C  0.28338495  0.49317202  0.65642730     0.07200
C255        C  0.26930045  0.47611473  0.63019144    -0.02600
C256        C  0.23803681  0.46643881  0.63215380    -0.02600
C257        C  0.22013138  0.47263996  0.66093755     0.07300
C258        C  0.23396469  0.48964613  0.68735018    -0.02800
Br259      Br  0.21007706  0.99601842  0.73005616    -0.01300
Br260      Br  0.28344952  0.02189604  0.72398302    -0.01400
Br261      Br  0.21936400  0.44600635  0.59409508    -0.01400
Br262      Br  0.29262196  0.46457307  0.59122340    -0.01300
C263        C  0.41450491  0.01555954  0.76733489    -0.02500
C264        C  0.41839730  0.02644999  0.73396175     0.07200
C265        C  0.44132608  0.05034982  0.72726847    -0.02600
C266        C  0.45775421  0.06489624  0.75357993    -0.02600
C267        C  0.45235629  0.05542975  0.78709674     0.07300
C268        C  0.43140155  0.02974173  0.79360157    -0.02800
Br269      Br  0.42583970  0.01317532  0.83876357    -0.01300
Br270      Br  0.38480181  0.98233999  0.77748066    -0.01400
Br271      Br  0.48623037  0.09938381  0.74373677    -0.01400
Br272      Br  0.45175403  0.06316596  0.68183524    -0.01300
O273        O  0.33239052  0.52179294  0.64511192    -0.73600
O274        O  0.42702282  0.51226894  0.62821901    -0.74500
O275        O  0.37225588  0.50989115  0.59011499    -0.63200
O276        O  0.39045172  0.53234603  0.68298353    -0.71600
O277        O  0.39404518  0.48192546  0.69882335    -0.71100
O278        O  0.36347448  0.96165739  0.60556332    -0.62400
O279        O  0.41917287  0.96411769  0.64020967    -0.74900
O280        O  0.33270048  0.97466447  0.66736564    -0.73700
Cu281      Cu  0.38035699  0.52102095  0.63632018     1.04600
Cu282      Cu  0.37671125  0.96963323  0.65423405     1.04300
C283        C  0.31796883  0.49684332  0.65649836     0.92600
C284        C  0.43765550  0.48382995  0.63126513     0.91800
C285        C  0.36497312  0.98410172  0.58318648     0.83900
C286        C  0.39975382  0.51158236  0.70403513     0.90200
O287        O  0.49276296  0.58154133  0.81709586    -0.73600
O288        O  0.01974876  0.61863644  0.90851196    -0.74500
O289        O  0.51970208  0.55967869  0.87733291    -0.63200
O290        O  0.49946737  0.64499855  0.84579312    -0.71600
O291        O  0.45271075  0.64366499  0.86813295    -0.71100
O292        O  0.47159668  0.54882347  0.89248987    -0.62400
O293        O  0.47189700  0.60849054  0.92582034    -0.74900
O294        O  0.44491709  0.58159505  0.83677988    -0.73700
Cu295      Cu  0.50941769  0.60174331  0.86123964     1.04600
Cu296      Cu  0.45844899  0.59562295  0.88132753     1.04300
C297        C  0.46398078  0.57379789  0.81409056     0.92600
C298        C  0.49924932  0.61728691  0.93214314     0.91800
C299        C  0.49986176  0.53992225  0.88820679     0.83900
C300        C  0.47488600  0.65945418  0.85362091     0.90200
O301        O  0.17467205  0.93854270  0.65537304    -0.73600
O302        O  0.08212014  0.93209050  0.63275080    -0.74500
O303        O  0.13805232  0.94185597  0.59731538    -0.63200
O304        O  0.11750799  0.92244752  0.69096105    -0.71600
O305        O  0.11041660  0.97270147  0.70396674    -0.71100
O306        O  0.13155251  0.99348751  0.60398486    -0.62400
O307        O  0.07870334  0.98354638  0.64328080    -0.74900
O308        O  0.16725910  0.98951434  0.66548261    -0.73700
Cu309      Cu  0.12853747  0.93202651  0.64408324     1.04600
Cu310      Cu  0.12222749  0.98670512  0.65481997     1.04300
C311        C  0.18556358  0.96620452  0.66221437     0.92600
C312        C  0.06629816  0.95783237  0.63412663     0.91800
C313        C  0.13561643  0.96953001  0.58475425     0.83900
C314        C  0.10855220  0.94288797  0.71188821     0.90200
O315        O  0.48852758  0.84337608  0.92133660    -0.73600
O316        O  0.01469966  0.87310507  0.82626878    -0.74500
O317        O  0.99046809  0.81392832  0.85752986    -0.63200
O318        O  0.00649970  0.90041930  0.88953288    -0.71600
O319        O  0.05585743  0.89058468  0.89997693    -0.71100
O320        O  0.03759734  0.79837047  0.87123334    -0.62400
O321        O  0.06171023  0.85768772  0.83944433    -0.74900
O322        O  0.03730291  0.83322249  0.93221775    -0.73700
Cu323      Cu  0.99841121  0.85780840  0.87301932     1.04600
Cu324      Cu  0.04982025  0.84414804  0.88579345     1.04300
C325        C  0.00958483  0.83560902  0.94244691     0.92600
C326        C  0.04377082  0.87219080  0.81923143     0.91800
C327        C  0.00996690  0.79174187  0.86151525     0.83900
C328        C  0.03280568  0.90971435  0.89929903     0.90200
O329        O  0.04344550  0.64800865  0.14912126    -0.73600
O330        O  0.04111828  0.55457663  0.11744092    -0.74500
O331        O  0.03609924  0.61575527  0.08848314    -0.63200
O332        O  0.05598442  0.58573009  0.17909416    -0.71600
O333        O  0.00710662  0.58015973  0.19446547    -0.71100
O334        O  0.48578922  0.61068114  0.09720377    -0.62400
O335        O  0.99207593  0.55384133  0.13288726    -0.74900
O336        O  0.99374219  0.64179106  0.16160861    -0.73700
Cu337      Cu  0.04594693  0.60130409  0.13356973     1.04600
Cu338      Cu  0.99295348  0.59699803  0.14737594     1.04300
C339        C  0.01736994  0.65963865  0.15854863     0.92600
C340        C  0.01466001  0.54036308  0.11893396     0.91800
C341        C  0.00896569  0.61508718  0.07699509     0.83900
C342        C  0.03607414  0.57554769  0.20025041     0.90200
O343        O  0.16306015  0.52461310  0.37522449    -0.73600
O344        O  0.06816090  0.51333467  0.39331614    -0.74500
O345        O  0.12403002  0.50934718  0.43045126    -0.63200
O346        O  0.10407723  0.53641959  0.33828152    -0.71600
O347        O  0.10310142  0.48674462  0.32092870    -0.71100
O348        O  0.12910681  0.95761022  0.41793904    -0.62400
O349        O  0.07421982  0.96177878  0.38174740    -0.74900
O350        O  0.16136780  0.97415412  0.35752304    -0.73700
Cu351      Cu  0.11496192  0.52289367  0.38463414     1.04600
Cu352      Cu  0.11707542  0.96820194  0.36916610     1.04300
C353        C  0.17751806  0.49980792  0.36478762     0.92600
C354        C  0.05717034  0.48522097  0.38857369     0.91800
C355        C  0.12975241  0.97934178  0.44024853     0.83900
C356        C  0.09675888  0.51639035  0.31619080     0.90200
O357        O  0.36606086  0.99421708  0.41800509    -0.73600
O358        O  0.38556184  0.96873067  0.32008879    -0.74500
O359        O  0.32951591  0.99085708  0.35775863    -0.63200
O360        O  0.41802073  0.97895704  0.38012588    -0.71600
O361        O  0.41037450  0.92860458  0.39560272    -0.71100
O362        O  0.31927506  0.94030158  0.36874488    -0.62400
O363        O  0.37652629  0.91924190  0.33663239    -0.74900
O364        O  0.35395888  0.94377849  0.42784001    -0.73700
Cu365      Cu  0.37468425  0.98505356  0.36810403     1.04600
Cu366      Cu  0.36442424  0.93134581  0.38230564     1.04300
C367        C  0.35913531  0.97137702  0.43866258     0.92600
C368        C  0.38686783  0.93863942  0.31448534     0.91800
C369        C  0.30970884  0.96858306  0.36185565     0.83900
C370        C  0.42821646  0.95299451  0.39211356     0.90200
O371        O  0.45235898  0.80274217  0.15510623    -0.73600
O372        O  0.45658901  0.89691951  0.12456995    -0.74500
O373        O  0.46557126  0.83745827  0.09669292    -0.63200
O374        O  0.43628290  0.86439141  0.18471653    -0.71600
O375        O  0.48340388  0.86737280  0.20555186    -0.71100
O376        O  0.51462620  0.84435438  0.10990547    -0.62400
O377        O  0.50320368  0.89891554  0.14655320    -0.71700
O378        O  0.50100714  0.80827919  0.17117389    -0.73700
Cu379      Cu  0.45088917  0.85011356  0.14029159     1.04600
Cu380      Cu  0.50217980  0.85440815  0.15939661     1.04300
C381        C  0.47800186  0.79046221  0.16498471     0.92600
C382        C  0.48226457  0.91174956  0.12902817     0.91800
C383        C  0.49359370  0.83976780  0.08770546     0.83900
C384        C  0.45406313  0.87202722  0.20852289     0.90200
C385        C  0.39235023  0.89421784  0.27281496    -0.02500
C386        C  0.40258453  0.92428873  0.28427670     0.07200
C387        C  0.43127090  0.93621085  0.27163284    -0.02600
C388        C  0.44914542  0.91842283  0.24848156    -0.02600
C389        C  0.43919402  0.88805291  0.23802377     0.07300
C390        C  0.41073494  0.87612909  0.25079336    -0.02800
Br391      Br  0.39708564  0.83392615  0.23893657    -0.01300
Br392      Br  0.35219397  0.87748802  0.28611457    -0.01400
Br393      Br  0.48686757  0.93646841  0.23013437    -0.01400
Br394      Br  0.44751753  0.97611641  0.28719885    -0.01300
C395        C  0.01060376  0.95474881  0.36933943    -0.02500
C396        C  0.02324070  0.97509116  0.39388078     0.07200
C397        C  0.50562713  0.48424272  0.41941061    -0.02600
C398        C  0.47383439  0.97253087  0.42389203    -0.02600
C399        C  0.46158746  0.95236516  0.39922710     0.07300
C400        C  0.98101452  0.94145053  0.37376001    -0.02800
Br401      Br  0.96640549  0.90889141  0.34424997    -0.01300
Br402      Br  0.03188419  0.94744914  0.32731864    -0.01400
Br403      Br  0.44783910  0.48900170  0.45652854    -0.01400
Br404      Br  0.52344723  0.50738046  0.45585989    -0.01300
C405        C  0.26305522  0.00106726  0.34094014    -0.02500
C406        C  0.27557581  0.97660760  0.36193230     0.07200
C407        C  0.25576515  0.96237118  0.38634330    -0.02600
C408        C  0.22412615  0.97044251  0.38797900    -0.02600
C409        C  0.21146168  0.99454757  0.36694536     0.07300
C410        C  0.23221609  0.51152689  0.34276641    -0.02800
Br411      Br  0.21605571  0.54535394  0.31495296    -0.01300
Br412      Br  0.28922050  0.52246815  0.30563750    -0.01400
Br413      Br  0.19835273  0.94762315  0.41987493    -0.01400
Br414      Br  0.27192666  0.93332731  0.42008640    -0.01300
C415        C  0.03069886  0.98417653  0.10726495    -0.02500
C416        C  0.00796433  0.50788618  0.10630131     0.07200
C417        C  0.47655522  0.49886077  0.10152849    -0.02600
C418        C  0.46731406  0.96693568  0.10831924    -0.02600
C419        C  0.48988322  0.94366291  0.11430915     0.07300
C420        C  0.02147308  0.95201914  0.10863755    -0.02800
Br421      Br  0.05225234  0.91963984  0.10125342    -0.01300
Br422      Br  0.07384547  0.99510254  0.10264506    -0.01400
Br423      Br  0.42391488  0.95613447  0.10751153    -0.01400
Br424      Br  0.44640722  0.52979322  0.08678360    -0.01300
C425        C  0.99097029  0.73847302  0.19453978    -0.02500
C426        C  0.48392369  0.75554087  0.16475640     0.07200
C427        C  0.49064382  0.74144669  0.13368515    -0.02600
C428        C  0.50618696  0.71215203  0.13233584    -0.02600
C429        C  0.01193054  0.69436245  0.16186202     0.07300
C430        C  0.00364770  0.70746726  0.19305275    -0.02800
Br431      Br  0.01022718  0.68295657  0.23360884    -0.01300
Br432      Br  0.98202715  0.75721689  0.23721238    -0.01400
Br433      Br  0.51971208  0.69633559  0.08961017    -0.01400
Br434      Br  0.47778091  0.76163264  0.09245857    -0.01300
C435        C  0.09034796  0.52395202  0.25363089    -0.02500
C436        C  0.07911399  0.52834904  0.28627269     0.07200
C437        C  0.05139969  0.54599674  0.29058145    -0.02600
C438        C  0.03629814  0.56046231  0.26278466    -0.02600
C439        C  0.04830556  0.55706472  0.23007891     0.07300
C440        C  0.07455790  0.53709719  0.22579059    -0.02800
Br441      Br  0.08862355  0.52560371  0.18164291    -0.01300
Br442      Br  0.13091527  0.00592856  0.25012207    -0.01400
Br443      Br  0.99986400  0.58581522  0.26996032    -0.01400
Br444      Br  0.03347982  0.55048746  0.33465939    -0.01300
C445        C  0.02516747  0.81732374  0.00127467    -0.02500
C446        C  0.00332998  0.83233934  0.97952458     0.07200
C447        C  0.47840009  0.84884684  0.99419939    -0.02600
C448        C  0.47733465  0.85327918  0.02907590    -0.02600
C449        C  0.49931854  0.83873185  0.05071979     0.07300
C450        C  0.02325947  0.82078538  0.03653126    -0.02800
Br451      Br  0.05325370  0.80053372  0.06535408    -0.01300
Br452      Br  0.05681007  0.78968061  0.98380865    -0.01400
Br453      Br  0.44634380  0.88203437  0.04632376    -0.01400
Br454      Br  0.44474186  0.86579043  0.96755582    -0.01300
C455        C  0.11813888  0.94915634  0.52916083    -0.02500
C456        C  0.13545733  0.97186262  0.54745258     0.07200
C457        C  0.15369370  0.99439069  0.52976803    -0.02600
C458        C  0.15445307  0.99443283  0.49437066    -0.02600
C459        C  0.13597779  0.97279935  0.47623934     0.07300
C460        C  0.11851490  0.94963523  0.49383928    -0.02800
Br461      Br  0.09310938  0.91987168  0.46971173    -0.01300
Br462      Br  0.09136777  0.91845030  0.55178938    -0.01400
Br463      Br  0.18064923  0.52639860  0.46955650    -0.01400
Br464      Br  0.17778272  0.02510329  0.55383035    -0.01300
C465        C  0.04678084  0.91963647  0.77749407    -0.02500
C466        C  0.05855147  0.89012330  0.78978963     0.07200
C467        C  0.08824907  0.88079369  0.77819926    -0.02600
C468        C  0.10627512  0.90103036  0.75717122    -0.02600
C469        C  0.09413547  0.92961723  0.74373387     0.07300
C470        C  0.06444887  0.93913791  0.75476005    -0.02800
Br471      Br  0.04745248  0.97869944  0.73825598    -0.01300
Br472      Br  0.00624670  0.93388158  0.79087412    -0.01400
Br473      Br  0.14869590  0.88970241  0.74731418    -0.01400
Br474      Br  0.10401742  0.83869559  0.78803900    -0.01300
C475        C  0.02824233  0.60347248  0.98425233    -0.02500
C476        C  0.50620584  0.62268032  0.96812735     0.07200
C477        C  0.48504735  0.63993711  0.98802490    -0.02600
C478        C  0.48466258  0.63669320  0.02339069    -0.02600
C479        C  0.00652356  0.61723597  0.03958846     0.07300
C480        C  0.02855039  0.60079703  0.01956045    -0.02800
Br481      Br  0.05801032  0.57172077  0.03951493    -0.01300
Br482      Br  0.05622326  0.57807414  0.95788446    -0.01400
Br483      Br  0.45382876  0.65861573  0.04926486    -0.01400
Br484      Br  0.45647389  0.66850793  0.96671661    -0.01300
C485        C  0.50282855  0.98813593  0.92446052    -0.02500
C486        C  0.51123596  0.50689873  0.89441951     0.07200
C487        C  0.53631164  0.99387200  0.87508470    -0.02600
C488        C  0.04839612  0.96340186  0.88133500    -0.02600
C489        C  0.03527399  0.94386421  0.90642305     0.07300
C490        C  0.01404487  0.95696071  0.92929120    -0.02800
Br491      Br  0.00046185  0.93145299  0.96718276    -0.01300
Br492      Br  0.47246722  0.50578007  0.95443857    -0.01400
Br493      Br  0.08156567  0.94707365  0.85396112    -0.01400
Br494      Br  0.55048364  0.51727486  0.83398134    -0.01300
C495        C  0.00947161  0.73975343  0.83025133    -0.02500
C496        C  0.99870949  0.75832870  0.85686238     0.07200
C497        C  0.47360683  0.74646711  0.87666029    -0.02600
C498        C  0.46153217  0.71550582  0.87182809    -0.02600
C499        C  0.47558802  0.69513167  0.84858035     0.07300
C500        C  0.99741097  0.70878372  0.82559110    -0.02800
Br501      Br  0.00878363  0.68596399  0.78578377    -0.01300
Br502      Br  0.04026286  0.75702189  0.79975293    -0.01400
Br503      Br  0.42419147  0.70243252  0.89493441    -0.01400
Br504      Br  0.45655116  0.77192508  0.91201324    -0.01300
C505        C  0.37297083  0.95051049  0.49594485    -0.02500
C506        C  0.35931680  0.97482422  0.47574920     0.07200
C507        C  0.34557963  0.00094914  0.49140474    -0.02600
C508        C  0.34548152  0.00285989  0.52672429    -0.02600
C509        C  0.35977979  0.97887968  0.54682350     0.07300
C510        C  0.37314928  0.95257621  0.53112179    -0.02800
Br511      Br  0.39372559  0.41814308  0.55465675    -0.01300
Br512      Br  0.39411704  0.91487060  0.47610041    -0.01400
Br513      Br  0.32475065  0.03839495  0.54711798    -0.01400
Br514      Br  0.32625085  0.03388736  0.46464523    -0.01300
C515        C  0.49033831  0.48854987  0.60345808    -0.02500
C516        C  0.47057247  0.97918795  0.63160252     0.07200
C517        C  0.48241306  0.95608452  0.65458883    -0.02600
C518        C  0.01282113  0.94502083  0.65132522    -0.02600
C519        C  0.03285627  0.95915563  0.62762289     0.07300
C520        C  0.02133115  0.98206376  0.60455056    -0.02800
Br521      Br  0.04932869  0.50096093  0.57047219    -0.01300
Br522      Br  0.47369253  0.51656700  0.56938531    -0.01400
Br523      Br  0.02784992  0.91192767  0.68111109    -0.01400
Br524      Br  0.45855195  0.94126587  0.69316087    -0.01300
C525        C  0.26536915  0.49975670  0.68510552    -0.02500
C526        C  0.28256689  0.99457278  0.65809285     0.07200
C527        C  0.26850001  0.97794030  0.63155480    -0.02600
C528        C  0.23740439  0.96764159  0.63364454    -0.02600
C529        C  0.21962714  0.97296558  0.66274196     0.07300
C530        C  0.23348385  0.98947469  0.68948236    -0.02800
Br531      Br  0.21028947  0.49767112  0.72740609    -0.01300
Br532      Br  0.28416653  0.52193923  0.72159816    -0.01400
Br533      Br  0.21875927  0.94746002  0.59545348    -0.01400
Br534      Br  0.29167116  0.96799577  0.59195229    -0.01300
C535        C  0.41353970  0.51438582  0.76613043    -0.02500
C536        C  0.41940640  0.52328790  0.73250152     0.07200
C537        C  0.44361537  0.54573501  0.72575352    -0.02600
C538        C  0.45918037  0.56130836  0.75202180    -0.02600
C539        C  0.45144269  0.55438863  0.78569819     0.07300
C540        C  0.42941193  0.52965275  0.79247571    -0.02800
Br541      Br  0.42105774  0.51557089  0.83805766    -0.01300
Br542      Br  0.38285009  0.48212006  0.77623456    -0.01400
Br543      Br  0.48988954  0.59354320  0.74155912    -0.01400
Br544      Br  0.45697006  0.55488293  0.68033368    -0.01300
O545        O  0.83125327  0.02362831  0.64624651    -0.73600
O546        O  0.92630612  0.01548091  0.63055564    -0.74500
O547        O  0.87192105  0.01203915  0.59164100    -0.63200
O548        O  0.88863863  0.03511950  0.68478916    -0.71600
O549        O  0.89337055  0.98480108  0.70046137    -0.71100
O550        O  0.86386185  0.45941487  0.60373456    -0.62400
O551        O  0.91953185  0.46104267  0.63836006    -0.74900
O552        O  0.83325687  0.47255130  0.66557943    -0.73700
Cu553      Cu  0.87932876  0.02352650  0.63798618     1.04600
Cu554      Cu  0.87719473  0.46705277  0.65246448     1.04300
C555        C  0.81711795  0.99864606  0.65798540     0.92600
C556        C  0.93716828  0.98712573  0.63352793     0.91800
C557        C  0.86520205  0.48202737  0.58153031     0.83900
C558        C  0.89853747  0.01454035  0.70570902     0.90200
O559        O  0.99420800  0.08144880  0.81859218    -0.73600
O560        O  0.52206421  0.11798942  0.91004027    -0.74500
O561        O  0.02129966  0.05899441  0.87872766    -0.63200
O562        O  0.00164727  0.14444796  0.84743712    -0.71600
O563        O  0.95477798  0.14326577  0.86952512    -0.71100
O564        O  0.97332949  0.04862374  0.89477587    -0.62400
O565        O  0.97411355  0.10867016  0.92753817    -0.74900
O566        O  0.94656464  0.08110571  0.83899542    -0.73700
Cu567      Cu  0.01131409  0.10119865  0.86277706     1.04600
Cu568      Cu  0.96038711  0.09539371  0.88326442     1.04300
C569        C  0.96536266  0.07385138  0.81584912     0.92600
C570        C  0.00158601  0.11717124  0.93371430     0.91800
C571        C  0.00144882  0.03945956  0.89005450     0.83900
C572        C  0.97699407  0.15890918  0.85491973     0.90200
O573        O  0.67539396  0.43806509  0.65355445    -0.73600
O574        O  0.58323730  0.43085986  0.63027319    -0.74500
O575        O  0.63915671  0.44169612  0.59526467    -0.63200
O576        O  0.61826037  0.42112390  0.68869066    -0.71600
O577        O  0.61093522  0.47126315  0.70206949    -0.71100
O578        O  0.63181526  0.49313603  0.60243030    -0.62400
O579        O  0.57908088  0.48211202  0.64152825    -0.74900
O580        O  0.66763698  0.48896590  0.66374900    -0.73700
Cu581      Cu  0.62948596  0.43123973  0.64191442     1.04600
Cu582      Cu  0.62259255  0.48575987  0.65311429     1.04300
C583        C  0.68609522  0.46578040  0.66044050     0.92600
C584        C  0.56707471  0.45633938  0.63193845     0.91800
C585        C  0.63627921  0.46943642  0.58297297     0.83900
C586        C  0.60913597  0.44139452  0.70972924     0.90200
O587        O  0.98856259  0.34336495  0.91989845    -0.73600
O588        O  0.51524792  0.37210593  0.82455225    -0.74500
O589        O  0.49160720  0.31315384  0.85653156    -0.63200
O590        O  0.50583823  0.40025978  0.88733766    -0.71600
O591        O  0.55522559  0.39137144  0.89852709    -0.71100
O592        O  0.53885629  0.29850868  0.87087412    -0.62400
O593        O  0.56237273  0.35771365  0.83849006    -0.74900
O594        O  0.53739624  0.33411241  0.93120888    -0.73700
Cu595      Cu  0.49867590  0.35730538  0.87140102     1.04600
Cu596      Cu  0.55017855  0.34466422  0.88487497     1.04300
C597        C  0.50958663  0.33606481  0.94122116     0.92600
C598        C  0.54438520  0.37145949  0.81776732     0.91800
C599        C  0.51139260  0.29134000  0.86104492     0.83900
C600        C  0.53185451  0.41008015  0.89739837     0.90200
O601        O  0.54392580  0.14829143  0.15049542    -0.73600
O602        O  0.54127570  0.05449045  0.12013303    -0.74500
O603        O  0.53684513  0.11533960  0.09024585    -0.63200
O604        O  0.55585215  0.08640655  0.18145680    -0.71600
O605        O  0.50692036  0.08046613  0.19626976    -0.71100
O606        O  0.98642472  0.11120835  0.09866211    -0.62400
O607        O  0.49201121  0.05429102  0.13461871    -0.74900
O608        O  0.49423209  0.14236145  0.16315615    -0.73700
Cu609      Cu  0.54624109  0.10141012  0.13563351     1.04600
Cu610      Cu  0.49315369  0.09749720  0.14900469     1.04300
C611        C  0.51791785  0.16010740  0.15984419     0.92600
C612        C  0.51471280  0.04047341  0.12127552     0.91800
C613        C  0.50976782  0.11512405  0.07857720     0.83900
C614        C  0.53585407  0.07590687  0.20233336     0.90200
O615        O  0.66231878  0.02321410  0.37654243    -0.73600
O616        O  0.56756734  0.01187853  0.39581459    -0.74500
O617        O  0.62390201  0.00787569  0.43221578    -0.63200
O618        O  0.60277885  0.03505716  0.34033180    -0.71600
O619        O  0.60208521  0.98543898  0.32277412    -0.71100
O620        O  0.62958378  0.45912203  0.41618056    -0.62400
O621        O  0.57490745  0.46316084  0.37959690    -0.74900
O622        O  0.66213917  0.47561323  0.35600480    -0.73700
Cu623      Cu  0.61427781  0.02146357  0.38653753     1.04600
Cu624      Cu  0.61782993  0.46961614  0.36735500     1.04300
C625        C  0.67677198  0.99839333  0.36611480     0.92600
C626        C  0.55655025  0.98378048  0.39103925     0.91800
C627        C  0.62995417  0.48083801  0.43850934     0.83900
C628        C  0.59557574  0.01507074  0.31815259     0.90200
O629        O  0.86664143  0.49476801  0.41633682    -0.73600
O630        O  0.88583253  0.46915534  0.31823783    -0.74500
O631        O  0.82994445  0.49137132  0.35616817    -0.63200
O632        O  0.91843217  0.47986152  0.37795928    -0.71600
O633        O  0.91110575  0.42948647  0.39350680    -0.71100
O634        O  0.81972426  0.44083565  0.36719060    -0.62400
O635        O  0.87684870  0.41977149  0.33504888    -0.74900
O636        O  0.85465477  0.44426685  0.42599334    -0.73700
Cu637      Cu  0.87507981  0.48567174  0.36627713     1.04600
Cu638      Cu  0.86497487  0.43196418  0.38054532     1.04300
C639        C  0.85984796  0.47180065  0.43691157     0.92600
C640        C  0.88722726  0.43901908  0.31283308     0.91800
C641        C  0.81014567  0.46912011  0.36031211     0.83900
C642        C  0.92882751  0.45396933  0.38984849     0.90200
O643        O  0.95282601  0.30311122  0.15470807    -0.73600
O644        O  0.95653889  0.39715246  0.12368249    -0.74500
O645        O  0.96517281  0.33763389  0.09589616    -0.63200
O646        O  0.93720585  0.36473454  0.18440238    -0.71600
O647        O  0.98463454  0.36777078  0.20448975    -0.71100
O648        O  0.01432598  0.34492677  0.10839919    -0.62400
O649        O  0.00331724  0.39938909  0.14525587    -0.71700
O650        O  0.00173019  0.30883115  0.16981974    -0.73700
Cu651      Cu  0.95110277  0.35040384  0.13972283     1.04600
Cu652      Cu  0.00263195  0.35491455  0.15804680     1.04300
C653        C  0.97863451  0.29095442  0.16421827     0.92600
C654        C  0.98222889  0.41205855  0.12783192     0.91800
C655        C  0.99307717  0.34010924  0.08650718     0.83900
C656        C  0.95533959  0.37234637  0.20791532     0.90200
C657        C  0.89411619  0.39351052  0.27266284    -0.02500
C658        C  0.90328943  0.42437883  0.28298491     0.07200
C659        C  0.93159692  0.43688465  0.26990351    -0.02600
C660        C  0.94994878  0.41906426  0.24723042    -0.02600
C661        C  0.94083573  0.38817711  0.23765097     0.07300
C662        C  0.91309847  0.37544625  0.25125125    -0.02800
Br663      Br  0.90159471  0.33207245  0.24149475    -0.01300
Br664      Br  0.85468142  0.37541336  0.28661240    -0.01400
Br665      Br  0.98744549  0.43745295  0.22873559    -0.01400
Br666      Br  0.94680250  0.47761531  0.28431158    -0.01300
C667        C  0.51129989  0.45599787  0.36688395    -0.02500
C668        C  0.52385352  0.47655021  0.39127944     0.07200
C669        C  0.00508865  0.98256319  0.42215407    -0.02600
C670        C  0.97439547  0.47416982  0.42118286    -0.02600
C671        C  0.96224306  0.45364677  0.39678160     0.07300
C672        C  0.48170493  0.44268007  0.37134507    -0.02800
Br673      Br  0.46711758  0.41009769  0.34186074    -0.01300
Br674      Br  0.53277465  0.44834844  0.32504930    -0.01400
Br675      Br  0.94743961  0.98662873  0.45972241    -0.01400
Br676      Br  0.02300884  0.00537799  0.45877394    -0.01300
C677        C  0.76373523  0.50208431  0.33969936    -0.02500
C678        C  0.77604436  0.47726627  0.36040224     0.07200
C679        C  0.75611288  0.46294348  0.38465139    -0.02600
C680        C  0.72463737  0.47158225  0.38665157    -0.02600
C681        C  0.71216215  0.49587732  0.36574486     0.07300
C682        C  0.73145313  0.01027908  0.34393462    -0.02800
Br683      Br  0.71510591  0.04388477  0.31597411    -0.01300
Br684      Br  0.78840590  0.02120884  0.30661745    -0.01400
Br685      Br  0.69880153  0.44945528  0.41902199    -0.01400
Br686      Br  0.77182005  0.43276032  0.41753015    -0.01300
C687        C  0.53055916  0.48417091  0.10463154    -0.02500
C688        C  0.50803056  0.00786996  0.10889232     0.07200
C689        C  0.97667953  0.99882102  0.10371278    -0.02600
C690        C  0.96715484  0.46708955  0.10682317    -0.02600
C691        C  0.98974456  0.44382268  0.11274047     0.07300
C692        C  0.52129750  0.45204354  0.10654366    -0.02800
Br693      Br  0.55202408  0.41954934  0.09944934    -0.01300
Br694      Br  0.57363061  0.49508226  0.09916375    -0.01400
Br695      Br  0.92368018  0.45656302  0.10744595    -0.01400
Br696      Br  0.94647179  0.02978413  0.08913689    -0.01300
C697        C  0.49101604  0.23926940  0.19449315    -0.02500
C698        C  0.98455571  0.25606253  0.16440505     0.07200
C699        C  0.99198037  0.24178239  0.13362455    -0.02600
C700        C  0.00757861  0.21249643  0.13289957    -0.02600
C701        C  0.51262951  0.19489904  0.16271190     0.07300
C702        C  0.50382141  0.20830092  0.19359315    -0.02800
Br703      Br  0.51015046  0.18438257  0.23456772    -0.01300
Br704      Br  0.48114757  0.25840055  0.23673445    -0.01400
Br705      Br  0.02226337  0.19651997  0.09068958    -0.01400
Br706      Br  0.97991750  0.26167643  0.09195345    -0.01300
C707        C  0.59074005  0.02491451  0.25578956    -0.02500
C708        C  0.57812985  0.02712684  0.28811642     0.07200
C709        C  0.54948896  0.04320053  0.29210857    -0.02600
C710        C  0.53475996  0.05835223  0.26442195    -0.02600
C711        C  0.54802042  0.05701286  0.23202254     0.07300
C712        C  0.57522890  0.03833351  0.22790843    -0.02800
Br713      Br  0.59099403  0.02857986  0.18388779    -0.01300
Br714      Br  0.62906464  0.50220535  0.24725438    -0.01400
Br715      Br  0.49702776  0.08167363  0.27146432    -0.01400
Br716      Br  0.52990178  0.04459660  0.33563216    -0.01300
C717        C  0.52540470  0.31840297  0.00018072    -0.02500
C718        C  0.50320702  0.33266387  0.97828301     0.07200
C719        C  0.97761108  0.34820010  0.99282484    -0.02600
C720        C  0.97617028  0.35255322  0.02772439    -0.02600
C721        C  0.99854982  0.33880917  0.04948454     0.07300
C722        C  0.52310972  0.32167344  0.03541697    -0.02800
Br723      Br  0.55346499  0.30216975  0.06439476    -0.01300
Br724      Br  0.55838747  0.29221710  0.98302328    -0.01400
Br725      Br  0.94414180  0.38024041  0.04477371    -0.01400
Br726      Br  0.94358655  0.36393068  0.96593209    -0.01300
C727        C  0.61907729  0.44937253  0.52714440    -0.02500
C728        C  0.63601642  0.47217512  0.54570516     0.07200
C729        C  0.65357474  0.49545025  0.52829055    -0.02600
C730        C  0.65415172  0.49604304  0.49289230    -0.02600
C731        C  0.63605401  0.47425821  0.47451425     0.07300
C732        C  0.61910509  0.45050743  0.49183417    -0.02800
Br733      Br  0.59381074  0.42085891  0.46740753    -0.01300
Br734      Br  0.59333078  0.41752220  0.54940850    -0.01400
Br735      Br  0.68166261  0.02382013  0.47065189    -0.01400
Br736      Br  0.67704145  0.52641371  0.55271678    -0.01300
C737        C  0.54696541  0.41782023  0.77472669    -0.02500
C738        C  0.55914029  0.38886817  0.78796713     0.07200
C739        C  0.58904406  0.37970435  0.77680560    -0.02600
C740        C  0.60687461  0.39967142  0.75526299    -0.02600
C741        C  0.59452823  0.42798369  0.74138918     0.07300
C742        C  0.56459461  0.43721851  0.75189200    -0.02800
Br743      Br  0.54710965  0.47617428  0.73436803    -0.01300
Br744      Br  0.50580775  0.43127521  0.78669768    -0.01400
Br745      Br  0.64927501  0.38834143  0.74527171    -0.01400
Br746      Br  0.60539039  0.33812775  0.78800847    -0.01300
C747        C  0.52990501  0.10303709  0.98613620    -0.02500
C748        C  0.00861179  0.12284125  0.96964101     0.07200
C749        C  0.98778573  0.14082908  0.98919848    -0.02600
C750        C  0.98677174  0.13754554  0.02457027    -0.02600
C751        C  0.50764727  0.11720297  0.04111882     0.07300
C752        C  0.52940732  0.10006648  0.02143215    -0.02800
Br753      Br  0.55722013  0.06959715  0.04184114    -0.01300
Br754      Br  0.55816323  0.07758755  0.96020289    -0.01400
Br755      Br  0.95638320  0.16056435  0.04994551    -0.01400
Br756      Br  0.96075967  0.17062486  0.96734035    -0.01300
C757        C  0.00105396  0.48847543  0.92233852    -0.02500
C758        C  0.01266663  0.00637551  0.89626239     0.07200
C759        C  0.03520130  0.49457818  0.87353606    -0.02600
C760        C  0.54705934  0.46397213  0.87956919    -0.02600
C761        C  0.53365986  0.44429768  0.90436788     0.07300
C762        C  0.51209195  0.45721524  0.92700580    -0.02800
Br763      Br  0.49769849  0.43139440  0.96432903    -0.01300
Br764      Br  0.97423067  0.00541120  0.95655681    -0.01400
Br765      Br  0.58019142  0.44760392  0.85213835    -0.01400
Br766      Br  0.05059170  0.01601133  0.83476235    -0.01300
C767        C  0.51161871  0.23886937  0.83074698    -0.02500
C768        C  0.50054779  0.25775346  0.85695516     0.07200
C769        C  0.97536522  0.24605766  0.87673747    -0.02600
C770        C  0.96338535  0.21503985  0.87222550    -0.02600
C771        C  0.97762457  0.19446775  0.84934580     0.07300
C772        C  0.49959011  0.20786373  0.82635335    -0.02800
Br773      Br  0.51121844  0.18463097  0.78689672    -0.01300
Br774      Br  0.54289722  0.25566270  0.80054141    -0.01400
Br775      Br  0.92599616  0.20207348  0.89533775    -0.01400
Br776      Br  0.95810157  0.27178261  0.91173383    -0.01300
C777        C  0.87396432  0.45028343  0.49375263    -0.02500
C778        C  0.86016076  0.47484199  0.47401539     0.07200
C779        C  0.84582863  0.50033648  0.49015644    -0.02600
C780        C  0.84536394  0.50141409  0.52552721    -0.02600
C781        C  0.85978522  0.47718252  0.54517193     0.07300
C782        C  0.87346057  0.45133597  0.52898439    -0.02800
Br783      Br  0.89429411  0.92032683  0.55729843    -0.01300
Br784      Br  0.89628223  0.41576159  0.47322860    -0.01400
Br785      Br  0.82385719  0.53603968  0.54668255    -0.01400
Br786      Br  0.82627400  0.53352673  0.46398271    -0.01300
C787        C  0.98999179  0.99126164  0.60578747    -0.02500
C788        C  0.97098224  0.47568499  0.62891487     0.07200
C789        C  0.98302936  0.45224409  0.65142311    -0.02600
C790        C  0.51372214  0.44199611  0.64827661    -0.02600
C791        C  0.53367991  0.45717469  0.62521205     0.07300
C792        C  0.52188973  0.48021124  0.60246820    -0.02800
Br793      Br  0.54886065  0.00126893  0.57160212    -0.01300
Br794      Br  0.97374460  0.01952174  0.57172061    -0.01400
Br795      Br  0.52926608  0.40875182  0.67758136    -0.01400
Br796      Br  0.95913525  0.43578676  0.68927522    -0.01300
C797        C  0.76471653  0.00013283  0.68714562    -0.02500
C798        C  0.78338538  0.49315918  0.65644442     0.07200
C799        C  0.76930260  0.47610814  0.63020303    -0.02600
C800        C  0.73803818  0.46643454  0.63215903    -0.02600
C801        C  0.72012995  0.47263175  0.66094153     0.07300
C802        C  0.73396203  0.48962880  0.68736135    -0.02800
Br803      Br  0.71007891  0.99603095  0.73003896    -0.01300
Br804      Br  0.78344655  0.02191868  0.72395121    -0.01400
Br805      Br  0.71936841  0.44600971  0.59409400    -0.01400
Br806      Br  0.79262808  0.46456836  0.59123750    -0.01300
C807        C  0.91449267  0.01555645  0.76732126    -0.02500
C808        C  0.91839272  0.02644168  0.73394738     0.07200
C809        C  0.94132585  0.05033710  0.72725535    -0.02600
C810        C  0.95775123  0.06488494  0.75356783    -0.02600
C811        C  0.95234448  0.05542577  0.78708530     0.07300
C812        C  0.93138458  0.02974177  0.79358983    -0.02800
Br813      Br  0.92580886  0.01318460  0.83875359    -0.01300
Br814      Br  0.88478707  0.98233840  0.77746404    -0.01400
Br815      Br  0.98623619  0.09936471  0.74372401    -0.01400
Br816      Br  0.95176318  0.06314506  0.68182234    -0.01300
O817        O  0.83238946  0.52178232  0.64512963    -0.73600
O818        O  0.92702244  0.51226534  0.62824220    -0.74500
O819        O  0.87225858  0.50988090  0.59013491    -0.63200
O820        O  0.89044801  0.53234264  0.68300325    -0.71600
O821        O  0.89404569  0.48192305  0.69884538    -0.71100
O822        O  0.86347231  0.96165974  0.60554219    -0.62400
O823        O  0.91917063  0.96411560  0.64018970    -0.74900
O824        O  0.83269791  0.97466207  0.66734336    -0.73700
Cu825      Cu  0.88035615  0.52101386  0.63634021     1.04600
Cu826      Cu  0.87670857  0.96963120  0.65421338     1.04300
C827        C  0.81796905  0.49683246  0.65651744     0.92600
C828        C  0.93765700  0.48382732  0.63128972     0.91800
C829        C  0.86496978  0.98410593  0.58316743     0.83900
C830        C  0.89975219  0.51158071  0.70405558     0.90200
O831        O  0.99276917  0.58153893  0.81711148    -0.73600
O832        O  0.51974463  0.61863519  0.90849669    -0.74500
O833        O  0.01970756  0.55967794  0.87735036    -0.63200
O834        O  0.99947325  0.64499688  0.84580594    -0.71600
O835        O  0.95271632  0.64366389  0.86814522    -0.71100
O836        O  0.97160140  0.54882332  0.89250607    -0.62400
O837        O  0.97190138  0.60849018  0.92583450    -0.74900
O838        O  0.94492312  0.58159423  0.83679510    -0.73700
Cu839      Cu  0.00942334  0.60174237  0.86125505     1.04600
Cu840      Cu  0.95845430  0.59562242  0.88134205     1.04300
C841        C  0.96398674  0.57379631  0.81410618     0.92600
C842        C  0.99925307  0.61728786  0.93215810     0.91800
C843        C  0.99986649  0.53992192  0.88822382     0.83900
C844        C  0.97489125  0.65945235  0.85363173     0.90200
O845        O  0.67467271  0.93853363  0.65536959    -0.73600
O846        O  0.58211776  0.93208039  0.63275961    -0.74500
O847        O  0.63804618  0.94184592  0.59731785    -0.63200
O848        O  0.61751187  0.92243644  0.69096573    -0.71600
O849        O  0.61042109  0.97269022  0.70397208    -0.71100
O850        O  0.63154858  0.99347763  0.60398852    -0.62400
O851        O  0.57870345  0.98353636  0.64329031    -0.74900
O852        O  0.66725931  0.98950475  0.66548120    -0.73700
Cu853      Cu  0.62853647  0.93201620  0.64408641     1.04600
Cu854      Cu  0.62222770  0.98669474  0.65482432     1.04300
C855        C  0.68556420  0.96619599  0.66220910     0.92600
C856        C  0.56629686  0.95782291  0.63413708     0.91800
C857        C  0.63561107  0.96952027  0.58475740     0.83900
C858        C  0.60855693  0.94287665  0.71189357     0.90200
O859        O  0.98852941  0.84337558  0.92132601    -0.73600
O860        O  0.51470182  0.87310491  0.82628042    -0.74500
O861        O  0.49046666  0.81392967  0.85754019    -0.63200
O862        O  0.50650249  0.90041997  0.88954506    -0.71600
O863        O  0.55585968  0.89058242  0.89998903    -0.71100
O864        O  0.53759484  0.79836916  0.87124449    -0.62400
O865        O  0.56171164  0.85768495  0.83945621    -0.74900
O866        O  0.53730049  0.83322101  0.93222984    -0.73700
Cu867      Cu  0.49841171  0.85780919  0.87303061     1.04600
Cu868      Cu  0.54981989  0.84414600  0.88580549     1.04300
C869        C  0.50958217  0.83560830  0.94245807     0.92600
C870        C  0.54377282  0.87218841  0.81924284     0.91800
C871        C  0.50996446  0.79174215  0.86152495     0.83900
C872        C  0.53280913  0.90971360  0.89931090     0.90200
O873        O  0.54344327  0.64800391  0.14910860    -0.73600
O874        O  0.54111108  0.55457404  0.11742294    -0.74500
O875        O  0.53609381  0.61575383  0.08846698    -0.63200
O876        O  0.55598039  0.58572367  0.17907662    -0.71600
O877        O  0.50710241  0.58015611  0.19444927    -0.71100
O878        O  0.98579501  0.61067975  0.09721886    -0.62400
O879        O  0.49206847  0.55383991  0.13286864    -0.74900
O880        O  0.49373973  0.64178841  0.16159603    -0.73700
Cu881      Cu  0.54594210  0.60130027  0.13355339     1.04600
Cu882      Cu  0.49294843  0.59699637  0.14736028     1.04300
C883        C  0.51736873  0.65963454  0.15853846     0.92600
C884        C  0.51465227  0.54036143  0.11891504     0.91800
C885        C  0.50895983  0.61508764  0.07697965     0.83900
C886        C  0.53606998  0.57554347  0.20023386     0.90200
O887        O  0.66306449  0.52461524  0.37521452    -0.73600
O888        O  0.56816224  0.51335123  0.39329646    -0.74500
O889        O  0.62402722  0.50935773  0.43043824    -0.63200
O890        O  0.60408611  0.53642775  0.33826407    -0.71600
O891        O  0.60310280  0.48675158  0.32091583    -0.71100
O892        O  0.62911132  0.95759880  0.41794218    -0.62400
O893        O  0.57422186  0.96176520  0.38175651    -0.74900
O894        O  0.66136647  0.97414743  0.35752377    -0.73700
Cu895      Cu  0.61496517  0.52290301  0.38461897     1.04600
Cu896      Cu  0.61707584  0.96819170  0.36917100     1.04300
C897        C  0.67752026  0.49980773  0.36478029     0.92600
C898        C  0.55716866  0.48523863  0.38855514     0.91800
C899        C  0.62975731  0.97932943  0.44025263     0.83900
C900        C  0.59676366  0.51639781  0.31617555     0.90200
O901        O  0.86605920  0.99422754  0.41798483    -0.73600
O902        O  0.88555447  0.96873214  0.32007037    -0.74500
O903        O  0.82951081  0.99085945  0.35774145    -0.63200
O904        O  0.91801751  0.97896633  0.38010345    -0.71600
O905        O  0.91037397  0.92861550  0.39558805    -0.71100
O906        O  0.81927369  0.94030354  0.36873099    -0.62400
O907        O  0.87652464  0.91924411  0.33662042    -0.74900
O908        O  0.85395729  0.94378960  0.42782343    -0.73700
Cu909      Cu  0.87467982  0.98505950  0.36808417     1.04600
Cu910      Cu  0.86442313  0.93135240  0.38229158     1.04300
C911        C  0.85913433  0.97138864  0.43864395     0.92600
C912        C  0.88686268  0.93864036  0.31447044     0.91800
C913        C  0.80970559  0.96858405  0.36184081     0.83900
C914        C  0.92821476  0.95300589  0.39209473     0.90200
O915        O  0.95235548  0.80274553  0.15509238    -0.73600
O916        O  0.95658894  0.89692267  0.12455453    -0.74500
O917        O  0.96557227  0.83746089  0.09667931    -0.63200
O918        O  0.93627852  0.86439506  0.18470065    -0.71600
O919        O  0.98339852  0.86737453  0.20553918    -0.71100
O920        O  0.01462634  0.84435765  0.10989534    -0.62400
O921        O  0.00320156  0.89891822  0.14654267    -0.71700
O922        O  0.00100302  0.80828223  0.17116239    -0.73700
Cu923      Cu  0.95088732  0.85011682  0.14027671     1.04600
Cu924      Cu  0.00217678  0.85441084  0.15938546     1.04300
C925        C  0.97799763  0.79046555  0.16497305     0.92600
C926        C  0.98226463  0.91175209  0.12901459     0.91800
C927        C  0.99359528  0.83977102  0.08769385     0.83900
C928        C  0.95405779  0.87202947  0.20850838     0.90200
C929        C  0.89234655  0.89421533  0.27280413    -0.02500
C930        C  0.90257870  0.92428830  0.28426264     0.07200
C931        C  0.93126333  0.93621248  0.27161653    -0.02600
C932        C  0.94913829  0.91842488  0.24846568    -0.02600
C933        C  0.93918817  0.88805431  0.23800898     0.07300
C934        C  0.91073063  0.87612836  0.25078027    -0.02800
Br935      Br  0.89708286  0.83392522  0.23892227    -0.01300
Br936      Br  0.85219525  0.87747876  0.28611301    -0.01400
Br937      Br  0.98685964  0.93647172  0.23011797    -0.01400
Br938      Br  0.94750778  0.97612000  0.28717996    -0.01300
C939        C  0.51060460  0.95473143  0.36935628    -0.02500
C940        C  0.52324312  0.97507341  0.39389710     0.07200
C941        C  0.00563120  0.48422051  0.41943402    -0.02600
C942        C  0.97383078  0.97254654  0.42387356    -0.02600
C943        C  0.96158583  0.95237953  0.39920869     0.07300
C944        C  0.48101478  0.94143487  0.37377784    -0.02800
Br945      Br  0.46640228  0.90887827  0.34426670    -0.01300
Br946      Br  0.53188334  0.94742996  0.32733478    -0.01400
Br947      Br  0.94784346  0.48898613  0.45655101    -0.01400
Br948      Br  0.02345461  0.50735212  0.45588582    -0.01300
C949        C  0.76304826  0.00106043  0.34092409    -0.02500
C950        C  0.77557259  0.97660622  0.36192024     0.07200
C951        C  0.75576617  0.96237359  0.38633749    -0.02600
C952        C  0.72412723  0.97044361  0.38797644    -0.02600
C953        C  0.71145921  0.99454467  0.36694041     0.07300
C954        C  0.73222274  0.51152614  0.34277053    -0.02800
Br955      Br  0.71606737  0.54535702  0.31495863    -0.01300
Br956      Br  0.78923497  0.52247726  0.30565969    -0.01400
Br957      Br  0.69835858  0.94762554  0.41987772    -0.01400
Br958      Br  0.77193353  0.93333640  0.42008357    -0.01300
C959        C  0.53069351  0.98417757  0.10727813    -0.02500
C960        C  0.50795657  0.50788518  0.10628077     0.07200
C961        C  0.97656277  0.49886077  0.10155250    -0.02600
C962        C  0.96731890  0.96693720  0.10829652    -0.02600
C963        C  0.98988624  0.94366409  0.11429371     0.07300
C964        C  0.52146888  0.95201971  0.10864855    -0.02800
Br965      Br  0.55224774  0.91964199  0.10125540    -0.01300
Br966      Br  0.57383938  0.99510536  0.10265422    -0.01400
Br967      Br  0.92391980  0.95613719  0.10747839    -0.01400
Br968      Br  0.94641226  0.52979186  0.08681017    -0.01300
C969        C  0.49098114  0.73846734  0.19454458    -0.02500
C970        C  0.98391883  0.75554417  0.16474851     0.07200
C971        C  0.99064571  0.74144810  0.13367998    -0.02600
C972        C  0.00618818  0.71215267  0.13233661    -0.02600
C973        C  0.51193204  0.69435814  0.16185790     0.07300
C974        C  0.50365430  0.70745998  0.19305166    -0.02800
Br975      Br  0.51023332  0.68294257  0.23360339    -0.01300
Br976      Br  0.48205348  0.75721042  0.23722130    -0.01400
Br977      Br  0.01971485  0.69632989  0.08961414    -0.01400
Br978      Br  0.97779362  0.76163349  0.09244886    -0.01300
C979        C  0.59033816  0.52394168  0.25361444    -0.02500
C980        C  0.57911633  0.52835597  0.28625834     0.07200
C981        C  0.55140985  0.54601660  0.29056910    -0.02600
C982        C  0.53630464  0.56047656  0.26277156    -0.02600
C983        C  0.54830141  0.55706307  0.23006379     0.07300
C984        C  0.57454620  0.53708569  0.22577463    -0.02800
Br985      Br  0.58860018  0.52558140  0.18162643    -0.01300
Br986      Br  0.63092425  0.00594709  0.25013570    -0.01400
Br987      Br  0.49988094  0.58584508  0.26994762    -0.01400
Br988      Br  0.53350469  0.55053309  0.33465054    -0.01300
C989        C  0.52516085  0.81731782  0.00128498    -0.02500
C990        C  0.50332587  0.83233778  0.97953540     0.07200
C991        C  0.97840253  0.84884616  0.99418813    -0.02600
C992        C  0.97733817  0.85328163  0.02906401    -0.02600
C993        C  0.99932219  0.83873584  0.05070859     0.07300
C994        C  0.52325382  0.82077921  0.03654161    -0.02800
Br995      Br  0.55324592  0.80052292  0.06536347    -0.01300
Br996      Br  0.55679754  0.78966856  0.98381761    -0.01400
Br997      Br  0.94634971  0.88204047  0.04630979    -0.01400
Br998      Br  0.94473999  0.86578157  0.96754534    -0.01300
C999        C  0.61813676  0.94914636  0.52916330    -0.02500
C1000       C  0.63545337  0.97185334  0.54745594     0.07200
C1001       C  0.65369230  0.99438004  0.52977268    -0.02600
C1002       C  0.65445608  0.99442000  0.49437550    -0.02600
C1003       C  0.63598290  0.97278564  0.47624301     0.07300
C1004       C  0.61851911  0.94962152  0.49384185    -0.02800
Br1005     Br  0.59312305  0.91985095  0.46971242    -0.01300
Br1006     Br  0.59135830  0.91844607  0.55179021    -0.01400
Br1007     Br  0.68064045  0.52641122  0.46954646    -0.01400
Br1008     Br  0.67777755  0.02509472  0.55383641    -0.01300
C1009       C  0.54678684  0.91963324  0.77750503    -0.02500
C1010       C  0.55855389  0.89011820  0.78979951     0.07200
C1011       C  0.58824861  0.88078332  0.77820581    -0.02600
C1012       C  0.60627601  0.90101673  0.75717543    -0.02600
C1013       C  0.59413991  0.92960607  0.74373951     0.07300
C1014       C  0.56445568  0.93913150  0.75476875    -0.02800
Br1015     Br  0.54746288  0.97869497  0.73826544    -0.01300
Br1016     Br  0.50625704  0.93388597  0.79089134    -0.01400
Br1017     Br  0.64869392  0.88968086  0.74731448    -0.01400
Br1018     Br  0.60401026  0.83868238  0.78804480    -0.01300
C1019       C  0.52822874  0.60345639  0.98423828    -0.02500
C1020       C  0.00620784  0.62268337  0.96814274     0.07200
C1021       C  0.98504023  0.63992748  0.98804203    -0.02600
C1022       C  0.98465879  0.63668334  0.02340770    -0.02600
C1023       C  0.50651735  0.61723481  0.03957304     0.07300
C1024       C  0.52853637  0.60078390  0.01954648    -0.02800
Br1025     Br  0.55798543  0.57169812  0.03950367    -0.01300
Br1026     Br  0.55619201  0.57803670  0.95787183    -0.01400
Br1027     Br  0.95381545  0.65859027  0.04928411    -0.01400
Br1028     Br  0.95644769  0.66848043  0.96673700    -0.01300
C1029       C  0.00281497  0.98813293  0.92444388    -0.02500
C1030       C  0.01123952  0.50689815  0.89443576     0.07200
C1031       C  0.03631079  0.99387455  0.87507846    -0.02600
C1032       C  0.54839796  0.96339976  0.88134116    -0.02600
C1033       C  0.53528004  0.94386373  0.90643331     0.07300
C1034       C  0.51405622  0.95696246  0.92930583    -0.02800
Br1035     Br  0.50047807  0.93145671  0.96720092    -0.01300
Br1036     Br  0.97248919  0.50578885  0.95446791    -0.01400
Br1037     Br  0.58156369  0.94707035  0.85396300    -0.01400
Br1038     Br  0.05046953  0.51726798  0.83398437    -0.01300
C1039       C  0.50947299  0.73975602  0.83025714    -0.02500
C1040       C  0.49870652  0.75832969  0.85686740     0.07200
C1041       C  0.97361390  0.74646672  0.87666171    -0.02600
C1042       C  0.96153881  0.71550506  0.87183423    -0.02600
C1043       C  0.97559175  0.69512914  0.84858638     0.07300
C1044       C  0.49741097  0.70878795  0.82559036    -0.02800
Br1045     Br  0.50878633  0.68597373  0.78578030    -0.01300
Br1046     Br  0.54027257  0.75702432  0.79976860    -0.01400
Br1047     Br  0.92420154  0.70243334  0.89494784    -0.01400
Br1048     Br  0.95656482  0.77192586  0.91201727    -0.01300
C1049       C  0.87297139  0.95052140  0.49592463    -0.02500
C1050       C  0.85931777  0.97483642  0.47573024     0.07200
C1051       C  0.84558124  0.00096109  0.49138705    -0.02600
C1052       C  0.84547836  0.00286705  0.52670698    -0.02600
C1053       C  0.85977720  0.97888618  0.54680450     0.07300
C1054       C  0.87315019  0.95258561  0.53110139    -0.02800
Br1055     Br  0.89374029  0.41813687  0.55467590    -0.01300
Br1056     Br  0.89411632  0.91488112  0.47607921    -0.01400
Br1057     Br  0.82473889  0.03839498  0.54710420    -0.01400
Br1058     Br  0.82626247  0.03390688  0.46462925    -0.01300
C1059       C  0.99033932  0.48855203  0.60348359    -0.02500
C1060       C  0.97057064  0.97918643  0.63158355     0.07200
C1061       C  0.98241201  0.95608404  0.65457062    -0.02600
C1062       C  0.51282030  0.94501697  0.65134026    -0.02600
C1063       C  0.53285497  0.95914872  0.62763555     0.07300
C1064       C  0.52133117  0.98205968  0.60456545    -0.02800
Br1065     Br  0.54932961  0.50095992  0.57045083    -0.01300
Br1066     Br  0.97369471  0.51657904  0.56941906    -0.01400
Br1067     Br  0.52784779  0.91192282  0.68112567    -0.01400
Br1068     Br  0.95854885  0.94125984  0.69313887    -0.01300
C1069       C  0.76536789  0.49973608  0.68512382    -0.02500
C1070       C  0.78256496  0.99457160  0.65807293     0.07200
C1071       C  0.76849803  0.97793222  0.63153960    -0.02600
C1072       C  0.73740306  0.96763161  0.63363367    -0.02600
C1073       C  0.71962739  0.97295958  0.66273151     0.07300
C1074       C  0.73348392  0.98947770  0.68946587    -0.02800
Br1075     Br  0.71028287  0.49764515  0.72741667    -0.01300
Br1076     Br  0.78416518  0.52190091  0.72162871    -0.01400
Br1077     Br  0.71875612  0.94744409  0.59544709    -0.01400
Br1078     Br  0.79166759  0.96798373  0.59193676    -0.01300
C1079       C  0.91354010  0.51438758  0.76614999    -0.02500
C1080       C  0.91940526  0.52328879  0.73252052     0.07200
C1081       C  0.94361375  0.54573625  0.72577058    -0.02600
C1082       C  0.95918157  0.56130853  0.75203769    -0.02600
C1083       C  0.95144755  0.55438718  0.78571457     0.07300
C1084       C  0.92941647  0.52965216  0.79249377    -0.02800
Br1085     Br  0.92106777  0.51556833  0.83807624    -0.01300
Br1086     Br  0.88284415  0.48212917  0.77625749    -0.01400
Br1087     Br  0.98988942  0.59354435  0.74157337    -0.01400
Br1088     Br  0.95696280  0.55488826  0.68034972    -0.01300
loop_ 
_geom_bond_atom_site_label_1 
_geom_bond_atom_site_label_2 
_geom_bond_distance 
_geom_bond_site_symmetry_2 
_ccdc_geom_bond_type 
O1           Cu9   2.103       .  S
O1           C11   1.292   1_545  A
O2           Cu9   2.082       .  S
O2           C12   1.289   1_545  A
O3           Cu9   1.947       .  S
O3          C285   1.264   1_545  A
O4           Cu9   1.981       .  S
O4           C14   1.270       .  A
O5         Cu282   2.094       .  S
O5           C14   1.291   1_565  A
O6          Cu10   2.061       .  S
O6           C13   1.289       .  A
O7          Cu10   1.931       .  S
O7          C284   1.262       .  A
O8          Cu10   1.983       .  S
O8          C283   1.269       .  A
Cu9        Cu282   2.350   1_545  S
Cu10        O277   2.097       .  S
Cu10       Cu281   2.352       .  S
C11         O280   1.269       .  A
C11         C526   1.503       .  S
C12         O279   1.262       .  A
C12         C516   1.487       .  S
C13         O275   1.264       .  A
C13         C237   1.488       .  S
C14         C264   1.512       .  S
O15         Cu23   2.099       .  S
O15          C25   1.292       .  A
O16        Cu567   2.079       .  S
O16         C570   1.290       .  A
O17         Cu23   1.929       .  S
O17          C27   1.261       .  A
O18         Cu23   1.959       .  S
O18          C28   1.267       .  A
O19         Cu24   2.095       .  S
O19          C28   1.291       .  A
O20         Cu24   2.094       .  S
O20          C27   1.292       .  A
O21         Cu24   1.957       .  S
O21          C26   1.266       .  A
O22         Cu24   1.971       .  S
O22          C25   1.268       .  A
Cu23        O560   2.079       .  S
Cu23        Cu24   2.354       .  S
C25         C267   1.507       .  S
C26         O560   1.290       .  A
C26         C204   1.490       .  S
C27         C214   1.494       .  S
C28         C227   1.509       .  S
O29         Cu37   2.062       .  S
O29          C39   1.287       .  A
O30         Cu37   2.057       .  S
O30          C40   1.286       .  A
O31         Cu37   1.946       .  S
O31          C41   1.265       .  A
O32         Cu37   1.962       .  S
O32          C42   1.270       .  A
O33         Cu38   2.092       .  S
O33          C42   1.290       .  A
O34         Cu38   2.075       .  S
O34          C41   1.289       .  A
O35         Cu38   1.947       .  S
O35          C40   1.266       .  A
O36         Cu38   2.001       .  S
O36          C39   1.272       .  A
Cu37        Cu38   2.366       .  S
C39         C257   1.499       .  S
C40         C247   1.472       .  S
C41         C184   1.488       .  S
C42         C197   1.507       .  S
O43        Cu595   2.053       .  S
O43         C597   1.285       .  A
O44         Cu51   2.080   1_455  S
O44          C54   1.288       .  A
O45         Cu51   1.983       .  S
O45          C55   1.270   1_655  A
O46         Cu51   1.951   1_455  S
O46          C56   1.267       .  A
O47         Cu52   2.060       .  S
O47          C56   1.286       .  A
O48         Cu52   2.087       .  S
O48          C55   1.290       .  A
O49         Cu52   1.987       .  S
O49          C54   1.273       .  A
O50         Cu52   1.967       .  S
O50          C53   1.268       .  A
Cu51        O587   2.053       .  S
Cu51        Cu52   2.357   1_655  S
C53         O587   1.285   1_455  A
C53         C174   1.505       .  S
C54         C194   1.519       .  S
C55         C224   1.499       .  S
C56         C217   1.473       .  S
O57         Cu65   2.073       .  S
O57          C67   1.288       .  A
O58         Cu65   2.090       .  S
O58          C68   1.289       .  A
O59         Cu65   1.939       .  S
O59          C69   1.264       .  A
O60         Cu65   1.971       .  S
O60          C70   1.268       .  A
O61         Cu66   2.096   1_455  S
O61          C70   1.291       .  A
O62        Cu610   2.101       .  S
O62         C613   1.293       .  A
O63         Cu66   1.917       .  S
O63          C68   1.263   1_655  A
O64         Cu66   1.981       .  S
O64          C67   1.269   1_655  A
Cu65        Cu66   2.358   1_455  S
Cu66        O606   2.101       .  S
C67         C157   1.490       .  S
C68         C144   1.494       .  S
C69         O606   1.293   1_455  A
C69         C207   1.498       .  S
C70         C167   1.514       .  S
O71         Cu79   2.114       .  S
O71          C81   1.294   1_545  A
O72         Cu79   2.087       .  S
O72          C82   1.290   1_545  A
O73         Cu79   1.948       .  S
O73         C355   1.266   1_545  A
O74         Cu79   1.987       .  S
O74          C84   1.271       .  A
O75        Cu352   2.085       .  S
O75          C84   1.291   1_565  A
O76         Cu80   2.057       .  S
O76          C83   1.287       .  A
O77         Cu80   1.933       .  S
O77         C354   1.263       .  A
O78         Cu80   1.980       .  S
O78         C353   1.269       .  A
Cu79       Cu352   2.362   1_545  S
Cu80        O347   2.081       .  S
Cu80       Cu351   2.361       .  S
C81         O350   1.269       .  A
C81         C409   1.511       .  S
C82         O349   1.263       .  A
C82         C396   1.488       .  S
C83         O345   1.265       .  A
C83         C187   1.483       .  S
C84         C164   1.503       .  S
O85         Cu93   2.069       .  S
O85          C95   1.288       .  A
O86         Cu93   2.099       .  S
O86          C96   1.292       .  A
O87         Cu93   2.011       .  S
O87          C97   1.273       .  A
O88         Cu93   1.951       .  S
O88          C98   1.267       .  A
O89         Cu94   2.068       .  S
O89          C98   1.286       .  A
O90         Cu94   2.067       .  S
O90          C97   1.288       .  A
O91         Cu94   1.960       .  S
O91          C96   1.268       .  A
O92         Cu94   1.943       .  S
O92          C95   1.265       .  A
Cu93        Cu94   2.359       .  S
C95         C234   1.487       .  S
C96         C114   1.516       .  S
C97         C134   1.516       .  S
C98         C127   1.474       .  S
O99        Cu107   2.070       .  S
O99         C109   1.288       .  A
O100       Cu107   2.070       .  S
O100        C110   1.286       .  A
O101       Cu107   1.932       .  S
O101        C111   1.264       .  A
O102       Cu107   1.981       .  S
O102        C112   1.271       .  A
O103       Cu108   2.085       .  S
O103        C112   1.289       .  A
O104       Cu108   2.090       .  S
O104        C111   1.290       .  A
O105       Cu108   1.931       .  S
O105        C110   1.265       .  A
O106       Cu108   1.988       .  S
O106        C109   1.271       .  A
Cu107      Cu108   2.359       .  S
C109        C154   1.492       .  S
C110        C147   1.490       .  S
C111        C177   1.495       .  S
C112        C117   1.505       .  S
C113        C114   1.425       .  A
C113        C118   1.414       .  A
C113       Br120   1.938       .  S
C114        C115   1.422       .  A
C115        C116   1.425       .  A
C115       Br122   1.931       .  S
C116        C117   1.416       .  A
C116       Br121   1.929       .  S
C117        C118   1.412       .  A
C118       Br119   1.936       .  S
C123        C124   1.422       .  A
C123        C128   1.403   1_455  A
C123       Br130   1.936       .  S
C124        C354   1.487       .  S
C124        C941   1.410       .  A
C125        C940   1.410       .  A
C125        C398   1.415       .  A
C125       Br132   1.927   1_565  S
C126        C127   1.415       .  A
C126        C397   1.414       .  A
C126       Br403   1.927       .  S
C127        C672   1.399       .  A
C128        C671   1.399       .  A
C128       Br129   1.929       .  S
Br131       C398   1.926       .  S
C133        C134   1.428       .  A
C133        C410   1.427       .  A
C133       Br412   1.929       .  S
C134        C135   1.415       .  A
C135        C136   1.413       .  A
C135       Br142   1.939       .  S
C136        C137   1.419       .  A
C136       Br141   1.925       .  S
C137        C353   1.509       .  S
C137        C410   1.409       .  A
C138        C405   1.428       .  A
C138        C409   1.410   1_545  A
C138       Br139   1.926       .  S
Br140       C405   1.928       .  S
C143        C148   1.409       .  A
C143        C416   1.403       .  A
C143       Br150   1.926       .  S
C144        C415   1.404   1_545  A
C144        C689   1.424   1_445  A
C145        C688   1.424   1_565  A
C145        C418   1.408       .  A
C145       Br152   1.936   1_565  S
C146        C147   1.406       .  A
C146        C417   1.407       .  A
C146       Br151   1.929       .  S
C147        C692   1.425       .  A
C148        C691   1.425   1_455  A
C148       Br149   1.935       .  S
C153        C158   1.420   1_655  A
C153        C698   1.413       .  A
C153       Br160   1.926       .  S
C154        C155   1.412       .  A
C154        C697   1.413       .  A
C155        C156   1.409       .  A
C155       Br162   1.924       .  S
C156        C701   1.408       .  A
C156       Br161   1.928       .  S
C157        C158   1.414       .  A
C157        C700   1.408       .  A
C158       Br159   1.926       .  S
C163        C164   1.401       .  A
C163        C168   1.414       .  A
C163       Br442   1.930       .  S
C164        C165   1.424       .  A
C165        C166   1.422       .  A
C165       Br172   1.927       .  S
C166        C167   1.412       .  A
C166       Br171   1.931   1_455  S
C167        C168   1.429       .  A
C168       Br169   1.930       .  S
Br170       C435   1.931       .  S
C173        C174   1.430   1_554  A
C173        C178   1.417       .  A
C173       Br180   1.936   1_554  S
C174        C719   1.415   1_455  A
C175        C176   1.408   1_556  A
C175        C718   1.415       .  A
C175       Br182   1.940       .  S
C176        C177   1.423       .  A
C176       Br181   1.942       .  S
C177        C722   1.406       .  A
C178        C721   1.406   1_455  A
C178       Br179   1.932       .  S
C183        C184   1.425       .  A
C183        C188   1.408       .  A
C183       Br190   1.937       .  S
C184        C185   1.406       .  A
C185        C186   1.411       .  A
C185       Br192   1.929       .  S
C186        C187   1.419       .  A
C186       Br463   1.933       .  S
C187        C188   1.405       .  A
C188       Br189   1.936       .  S
Br191       C458   1.933   1_545  S
C193        C194   1.425       .  A
C193        C198   1.426       .  A
C193       Br200   1.930       .  S
C194        C195   1.422       .  A
C195        C196   1.413       .  A
C195       Br202   1.937       .  S
C196        C197   1.414       .  A
C196       Br201   1.938       .  S
C197        C198   1.416       .  A
C198       Br199   1.931       .  S
C203        C208   1.411   1_556  A
C203        C748   1.405       .  A
C203       Br210   1.935       .  S
C204        C205   1.418       .  A
C204        C747   1.405       .  A
C205        C206   1.415   1_556  A
C205       Br212   1.922       .  S
C206        C751   1.407       .  A
C206       Br211   1.929       .  S
C207        C208   1.428       .  A
C207        C750   1.408   1_455  A
C208       Br209   1.936       .  S
C213        C486   1.411       .  A
C213        C762   1.412       .  A
C213       Br492   1.928       .  S
C214        C485   1.411   1_545  A
C214        C487   1.430   1_545  A
C215        C486   1.430       .  A
C215        C760   1.407       .  A
C215       Br494   1.939       .  S
C216        C217   1.399       .  A
C216        C759   1.407       .  A
C216       Br221   1.934       .  S
C217        C218   1.411       .  A
C218        C757   1.412       .  A
C218       Br219   1.925   1_455  S
Br220       C485   1.928   1_545  S
Br222       C487   1.939   1_545  S
C223        C224   1.407       .  A
C223        C228   1.416   1_455  A
C223       Br230   1.927       .  S
C224        C769   1.421   1_455  A
C225        C226   1.417       .  A
C225        C768   1.420       .  A
C225       Br232   1.930       .  S
C226        C227   1.410       .  A
C226       Br231   1.927       .  S
C227        C772   1.423       .  A
C228        C771   1.423       .  A
C228       Br229   1.932   1_655  S
C233        C234   1.425       .  A
C233        C238   1.406       .  A
C233       Br240   1.939       .  S
C234        C235   1.406       .  A
C235        C236   1.412       .  A
C235       Br242   1.932       .  S
C236        C237   1.424       .  A
C236       Br241   1.936       .  S
C237        C238   1.406       .  A
C238       Br511   1.936       .  S
Br239       C510   1.936       .  S
C243        C516   1.409       .  A
C243       C1064   1.413       .  A
C243       Br250   1.929   1_565  S
C244        C284   1.486       .  S
C244        C245   1.425       .  A
C244        C515   1.409       .  A
C245        C790   1.404       .  A
C245       Br252   1.938       .  S
C246        C247   1.400       .  A
C246        C789   1.404   1_455  A
C246       Br251   1.934       .  S
C247        C248   1.416       .  A
C248       C1059   1.412   1_455  A
C248       Br521   1.931       .  S
Br249       C520   1.930   1_545  S
C253        C526   1.412   1_545  A
C253        C530   1.423   1_545  A
C253       Br260   1.926       .  S
C254        C283   1.503       .  S
C254        C255   1.419       .  A
C254        C525   1.411       .  A
C255        C256   1.411       .  A
C255       Br262   1.917       .  S
C256        C257   1.409       .  A
C256       Br261   1.937       .  S
C257        C258   1.418       .  A
C258        C525   1.423       .  A
C258       Br531   1.927       .  S
Br259       C530   1.927       .  S
C263        C264   1.408       .  A
C263        C268   1.420       .  A
C263       Br270   1.929   1_545  S
C264        C265   1.429       .  A
C265        C266   1.418       .  A
C265       Br272   1.930       .  S
C266        C267   1.405       .  A
C266       Br271   1.931       .  S
C267        C268   1.426       .  A
C268       Br269   1.932       .  S
O273       Cu281   2.102       .  S
O273        C283   1.292       .  A
O274       Cu281   2.078       .  S
O274        C284   1.289       .  A
O275       Cu281   1.943       .  S
O276       Cu281   1.980       .  S
O276        C286   1.270       .  A
O277        C286   1.292       .  A
O278       Cu282   2.060       .  S
O278        C285   1.289       .  A
O279       Cu282   1.932       .  S
O280       Cu282   1.984       .  S
C285        C509   1.489       .  S
C286        C536   1.511       .  S
O287       Cu295   2.099       .  S
O287        C297   1.292       .  A
O288       Cu839   2.077       .  S
O288        C842   1.290   1_455  A
O289       Cu295   1.928       .  S
O289        C299   1.261       .  A
O290       Cu295   1.963       .  S
O290        C300   1.268       .  A
O291       Cu296   2.097       .  S
O291        C300   1.291       .  A
O292       Cu296   2.095       .  S
O292        C299   1.292       .  A
O293       Cu296   1.956       .  S
O293        C298   1.266       .  A
O294       Cu296   1.974       .  S
O294        C297   1.268       .  A
Cu295       O832   2.077       .  S
Cu295      Cu296   2.351       .  S
C297        C539   1.510       .  S
C298        O832   1.290       .  A
C298        C476   1.489       .  S
C299        C486   1.494       .  S
C300        C499   1.512       .  S
O301       Cu309   2.067       .  S
O301        C311   1.288       .  A
O302       Cu309   2.061       .  S
O302        C312   1.287       .  A
O303       Cu309   1.943       .  S
O303        C313   1.265       .  A
O304       Cu309   1.960       .  S
O304        C314   1.269       .  A
O305       Cu310   2.095       .  S
O305        C314   1.290       .  A
O306       Cu310   2.078       .  S
O306        C313   1.290       .  A
O307       Cu310   1.946       .  S
O307        C312   1.266       .  A
O308       Cu310   2.000       .  S
O308        C311   1.272       .  A
Cu309      Cu310   2.365       .  S
C311        C529   1.499       .  S
C312        C519   1.473       .  S
C313        C456   1.489       .  S
C314        C469   1.507       .  S
O315       Cu867   2.050       .  S
O315        C869   1.285       .  A
O316       Cu323   2.078   1_455  S
O316        C326   1.287       .  A
O317       Cu323   1.987       .  S
O317        C327   1.271   1_655  A
O318       Cu323   1.952   1_455  S
O318        C328   1.267       .  A
O319       Cu324   2.060       .  S
O319        C328   1.285       .  A
O320       Cu324   2.089       .  S
O320        C327   1.290       .  A
O321       Cu324   1.987       .  S
O321        C326   1.273       .  A
O322       Cu324   1.970       .  S
O322        C325   1.269       .  A
Cu323       O859   2.051       .  S
Cu323      Cu324   2.357   1_655  S
C325        O859   1.285   1_455  A
C325        C446   1.505       .  S
C326        C466   1.519       .  S
C327        C496   1.501   1_455  S
C328        C489   1.474       .  S
O329       Cu337   2.075       .  S
O329        C339   1.288       .  A
O330       Cu337   2.090       .  S
O330        C340   1.289       .  A
O331       Cu337   1.939       .  S
O331        C341   1.263       .  A
O332       Cu337   1.971       .  S
O332        C342   1.268       .  A
O333       Cu338   2.092   1_455  S
O333        C342   1.291       .  A
O334       Cu882   2.097       .  S
O334        C885   1.292       .  A
O335       Cu338   1.916       .  S
O335        C340   1.263   1_655  A
O336       Cu338   1.979       .  S
O336        C339   1.269   1_655  A
Cu337      Cu338   2.359   1_455  S
Cu338       O878   2.097       .  S
C339        C429   1.490       .  S
C340        C416   1.493       .  S
C341        O878   1.292   1_455  A
C341        C479   1.497       .  S
C342        C439   1.510       .  S
O343       Cu351   2.112       .  S
O343        C353   1.294       .  A
O344       Cu351   2.087       .  S
O344        C354   1.290       .  A
O345       Cu351   1.947       .  S
O346       Cu351   1.985       .  S
O346        C356   1.271       .  A
O347        C356   1.290       .  A
O348       Cu352   2.059       .  S
O348        C355   1.288       .  A
O349       Cu352   1.933       .  S
O350       Cu352   1.981       .  S
C355        C459   1.483       .  S
C356        C436   1.502       .  S
O357       Cu365   2.065       .  S
O357        C367   1.287       .  A
O358       Cu365   2.097       .  S
O358        C368   1.291       .  A
O359       Cu365   2.015       .  S
O359        C369   1.274       .  A
O360       Cu365   1.956       .  S
O360        C370   1.268       .  A
O361       Cu366   2.064       .  S
O361        C370   1.286       .  A
O362       Cu366   2.065       .  S
O362        C369   1.288       .  A
O363       Cu366   1.968       .  S
O363        C368   1.269       .  A
O364       Cu366   1.949       .  S
O364        C367   1.266       .  A
Cu365      Cu366   2.359       .  S
C367        C506   1.488       .  S
C368        C386   1.515       .  S
C369        C406   1.516       .  S
C370        C399   1.473       .  S
O371       Cu379   2.071       .  S
O371        C381   1.288       .  A
O372       Cu379   2.070       .  S
O372        C382   1.286       .  A
O373       Cu379   1.931       .  S
O373        C383   1.264       .  A
O374       Cu379   1.981       .  S
O374        C384   1.271       .  A
O375       Cu380   2.089       .  S
O375        C384   1.290       .  A
O376       Cu380   2.093       .  S
O376        C383   1.290       .  A
O377       Cu380   1.933       .  S
O377        C382   1.266       .  A
O378       Cu380   1.990       .  S
O378        C381   1.271       .  A
Cu379      Cu380   2.358       .  S
C381        C426   1.494       .  S
C382        C419   1.490       .  S
C383        C449   1.495       .  S
C384        C389   1.508       .  S
C385        C386   1.423       .  A
C385        C390   1.415       .  A
C385       Br392   1.937       .  S
C386        C387   1.421       .  A
C387        C388   1.425       .  A
C387       Br394   1.931       .  S
C388        C389   1.417       .  A
C388       Br393   1.929       .  S
C389        C390   1.415       .  A
C390       Br391   1.936       .  S
C395        C396   1.422       .  A
C395        C400   1.403   1_455  A
C395       Br402   1.936       .  S
C396        C669   1.410       .  A
C397        C668   1.410       .  A
C397       Br404   1.927       .  S
C398        C399   1.414       .  A
C399        C944   1.398       .  A
C400        C943   1.398       .  A
C400       Br401   1.929       .  S
C405        C406   1.427   1_545  A
C406        C407   1.415       .  A
C407        C408   1.413       .  A
C407       Br414   1.939       .  S
C408        C409   1.420       .  A
C408       Br413   1.925       .  S
C410       Br411   1.927       .  S
C415        C420   1.409       .  A
C415       Br422   1.926       .  S
C416        C961   1.423   1_455  A
C417        C960   1.423       .  A
C417       Br424   1.935       .  S
C418        C419   1.406       .  A
C418       Br423   1.930       .  S
C419        C964   1.424       .  A
C420        C963   1.424   1_455  A
C420       Br421   1.935       .  S
C425        C970   1.413       .  A
C425        C430   1.420   1_655  A
C425       Br432   1.926       .  S
C426        C969   1.413       .  A
C426        C427   1.412       .  A
C427        C428   1.409       .  A
C427       Br434   1.924       .  S
C428        C973   1.408       .  A
C428       Br433   1.928       .  S
C429        C972   1.408       .  A
C429        C430   1.414       .  A
C430       Br431   1.926       .  S
C435        C436   1.402       .  A
C435        C440   1.414       .  A
C436        C437   1.425       .  A
C437        C438   1.420       .  A
C437       Br444   1.928       .  S
C438        C439   1.410       .  A
C438       Br443   1.931   1_455  S
C439        C440   1.428       .  A
C440       Br441   1.929       .  S
C445        C446   1.430   1_554  A
C445        C450   1.418       .  A
C445       Br452   1.935   1_554  S
C446        C991   1.414   1_455  A
C447        C990   1.414       .  A
C447        C448   1.407   1_556  A
C447       Br454   1.940       .  S
C448        C449   1.423       .  A
C448       Br453   1.941       .  S
C449        C994   1.406       .  A
C450        C993   1.406   1_455  A
C450       Br451   1.932       .  S
C455        C456   1.425       .  A
C455        C460   1.408       .  A
C455       Br462   1.937       .  S
C456        C457   1.406       .  A
C457        C458   1.411       .  A
C457       Br464   1.929   1_565  S
C458        C459   1.419       .  A
C459        C460   1.405       .  A
C460       Br461   1.935       .  S
C465        C466   1.425       .  A
C465        C470   1.427       .  A
C465       Br472   1.931       .  S
C466        C467   1.422       .  A
C467        C468   1.412       .  A
C467       Br474   1.937       .  S
C468        C469   1.414       .  A
C468       Br473   1.938       .  S
C469        C470   1.417       .  A
C470       Br471   1.931       .  S
C475       C1020   1.405       .  A
C475        C480   1.410   1_556  A
C475       Br482   1.936       .  S
C476       C1019   1.405       .  A
C476        C477   1.418       .  A
C477        C478   1.414   1_556  A
C477       Br484   1.921       .  S
C478       C1023   1.407       .  A
C478       Br483   1.929       .  S
C479       C1022   1.407   1_455  A
C479        C480   1.428       .  A
C480       Br481   1.937       .  S
C485       C1034   1.412       .  A
C487       C1032   1.407       .  A
C488       C1031   1.407       .  A
C488        C489   1.399       .  A
C488       Br493   1.933       .  S
C489        C490   1.411       .  A
C490       C1029   1.412       .  A
C490       Br491   1.924       .  S
C495        C496   1.407   1_455  A
C495        C500   1.417   1_455  A
C495       Br502   1.927       .  S
C496       C1041   1.420       .  A
C497       C1040   1.420       .  A
C497        C498   1.418       .  A
C497       Br504   1.930       .  S
C498        C499   1.411       .  A
C498       Br503   1.926       .  S
C499       C1044   1.423       .  A
C500       C1043   1.423       .  A
C500       Br501   1.932   1_655  S
C505        C506   1.425       .  A
C505        C510   1.407       .  A
C505       Br512   1.939       .  S
C506        C507   1.406   1_565  A
C507        C508   1.412       .  A
C507       Br514   1.932       .  S
C508        C509   1.425   1_545  A
C508       Br513   1.936       .  S
C509        C510   1.407       .  A
C515        C792   1.412       .  A
C515       Br522   1.929       .  S
C516        C517   1.424       .  A
C517       C1062   1.404       .  A
C517       Br524   1.938       .  S
C518       C1061   1.404   1_455  A
C518        C519   1.400       .  A
C518       Br523   1.933       .  S
C519        C520   1.416       .  A
C520        C787   1.413   1_455  A
C525       Br532   1.925       .  S
C526        C527   1.418       .  A
C527        C528   1.412       .  A
C527       Br534   1.918       .  S
C528        C529   1.409       .  A
C528       Br533   1.936       .  S
C529        C530   1.418       .  A
C535        C536   1.407       .  A
C535        C540   1.420       .  A
C535       Br542   1.929       .  S
C536        C537   1.427       .  A
C537        C538   1.418       .  A
C537       Br544   1.928       .  S
C538        C539   1.406       .  A
C538       Br543   1.931       .  S
C539        C540   1.428       .  A
C540       Br541   1.932       .  S
O545       Cu553   2.103       .  S
O545        C555   1.292   1_545  A
O546       Cu553   2.082       .  S
O546        C556   1.289   1_545  A
O547       Cu553   1.947       .  S
O547        C829   1.264   1_545  A
O548       Cu553   1.981       .  S
O548        C558   1.270       .  A
O549       Cu826   2.094       .  S
O549        C558   1.291   1_565  A
O550       Cu554   2.061       .  S
O550        C557   1.289       .  A
O551       Cu554   1.931       .  S
O551        C828   1.262       .  A
O552       Cu554   1.983       .  S
O552        C827   1.269       .  A
Cu553      Cu826   2.350   1_545  S
Cu554       O821   2.097       .  S
Cu554      Cu825   2.352       .  S
C555        O824   1.269       .  A
C555       C1070   1.503       .  S
C556        O823   1.262       .  A
C556       C1060   1.487       .  S
C557        O819   1.264       .  A
C557        C781   1.488       .  S
C558        C808   1.512       .  S
O559       Cu567   2.099   1_655  S
O559        C569   1.292       .  A
O561       Cu567   1.929       .  S
O561        C571   1.261       .  A
O562       Cu567   1.958       .  S
O562        C572   1.267   1_455  A
O563       Cu568   2.095       .  S
O563        C572   1.291       .  A
O564       Cu568   2.094       .  S
O564        C571   1.292   1_655  A
O565       Cu568   1.957       .  S
O565        C570   1.266   1_655  A
O566       Cu568   1.971       .  S
O566        C569   1.268       .  A
Cu567      Cu568   2.354   1_455  S
C569        C811   1.507       .  S
C570        C748   1.490       .  S
C571        C758   1.494       .  S
C572        C771   1.509       .  S
O573       Cu581   2.062       .  S
O573        C583   1.287       .  A
O574       Cu581   2.057       .  S
O574        C584   1.286       .  A
O575       Cu581   1.946       .  S
O575        C585   1.265       .  A
O576       Cu581   1.962       .  S
O576        C586   1.270       .  A
O577       Cu582   2.092       .  S
O577        C586   1.290       .  A
O578       Cu582   2.075       .  S
O578        C585   1.289       .  A
O579       Cu582   1.947       .  S
O579        C584   1.266       .  A
O580       Cu582   2.001       .  S
O580        C583   1.272       .  A
Cu581      Cu582   2.366       .  S
C583        C801   1.499       .  S
C584        C791   1.472       .  S
C585        C728   1.488       .  S
C586        C741   1.507       .  S
O588       Cu595   2.080       .  S
O588        C598   1.288       .  A
O589       Cu595   1.983       .  S
O589        C599   1.270       .  A
O590       Cu595   1.951       .  S
O590        C600   1.267       .  A
O591       Cu596   2.060       .  S
O591        C600   1.286       .  A
O592       Cu596   2.087       .  S
O592        C599   1.290       .  A
O593       Cu596   1.987       .  S
O593        C598   1.273       .  A
O594       Cu596   1.967       .  S
O594        C597   1.268       .  A
Cu595      Cu596   2.357       .  S
C597        C718   1.505       .  S
C598        C738   1.519       .  S
C599        C768   1.499       .  S
C600        C761   1.473       .  S
O601       Cu609   2.073       .  S
O601        C611   1.288       .  A
O602       Cu609   2.090       .  S
O602        C612   1.289       .  A
O603       Cu609   1.939       .  S
O603        C613   1.264       .  A
O604       Cu609   1.971       .  S
O604        C614   1.268       .  A
O605       Cu610   2.096       .  S
O605        C614   1.291       .  A
O607       Cu610   1.917       .  S
O607        C612   1.263       .  A
O608       Cu610   1.981       .  S
O608        C611   1.269       .  A
Cu609      Cu610   2.358       .  S
C611        C701   1.490       .  S
C612        C688   1.494       .  S
C613        C751   1.498       .  S
C614        C711   1.514       .  S
O615       Cu623   2.114       .  S
O615        C625   1.294   1_545  A
O616       Cu623   2.087       .  S
O616        C626   1.290   1_545  A
O617       Cu623   1.948       .  S
O617        C899   1.266   1_545  A
O618       Cu623   1.987       .  S
O618        C628   1.271       .  A
O619       Cu896   2.085       .  S
O619        C628   1.291   1_565  A
O620       Cu624   2.057       .  S
O620        C627   1.287       .  A
O621       Cu624   1.933       .  S
O621        C898   1.263       .  A
O622       Cu624   1.980       .  S
O622        C897   1.269       .  A
Cu623      Cu896   2.362   1_545  S
Cu624       O891   2.081       .  S
Cu624      Cu895   2.361       .  S
C625        O894   1.269       .  A
C625        C953   1.511       .  S
C626        O893   1.263       .  A
C626        C940   1.488       .  S
C627        O889   1.265       .  A
C627        C731   1.483       .  S
C628        C708   1.503       .  S
O629       Cu637   2.069       .  S
O629        C639   1.288       .  A
O630       Cu637   2.099       .  S
O630        C640   1.292       .  A
O631       Cu637   2.011       .  S
O631        C641   1.273       .  A
O632       Cu637   1.951       .  S
O632        C642   1.267       .  A
O633       Cu638   2.068       .  S
O633        C642   1.286       .  A
O634       Cu638   2.067       .  S
O634        C641   1.288       .  A
O635       Cu638   1.960       .  S
O635        C640   1.268       .  A
O636       Cu638   1.943       .  S
O636        C639   1.265       .  A
Cu637      Cu638   2.359       .  S
C639        C778   1.487       .  S
C640        C658   1.516       .  S
C641        C678   1.516       .  S
C642        C671   1.474       .  S
O643       Cu651   2.070       .  S
O643        C653   1.288       .  A
O644       Cu651   2.070       .  S
O644        C654   1.286       .  A
O645       Cu651   1.932       .  S
O645        C655   1.264       .  A
O646       Cu651   1.981       .  S
O646        C656   1.271       .  A
O647       Cu652   2.085   1_655  S
O647        C656   1.289       .  A
O648       Cu652   2.090       .  S
O648        C655   1.290   1_455  A
O649       Cu652   1.931       .  S
O649        C654   1.265   1_455  A
O650       Cu652   1.988       .  S
O650        C653   1.271   1_455  A
Cu651      Cu652   2.359   1_655  S
C653        C698   1.492       .  S
C654        C691   1.490       .  S
C655        C721   1.495       .  S
C656        C661   1.505       .  S
C657        C658   1.425       .  A
C657        C662   1.414       .  A
C657       Br664   1.938       .  S
C658        C659   1.422       .  A
C659        C660   1.425       .  A
C659       Br666   1.931       .  S
C660        C661   1.416       .  A
C660       Br665   1.929       .  S
C661        C662   1.412       .  A
C662       Br663   1.936       .  S
C667        C668   1.422       .  A
C667        C672   1.403       .  A
C667       Br674   1.936       .  S
C668        C898   1.487       .  S
C669        C942   1.415   1_455  A
C669       Br676   1.927   1_565  S
C670        C941   1.414   1_655  A
C670        C671   1.415       .  A
C670       Br947   1.927       .  S
C672       Br673   1.929       .  S
Br675       C942   1.926       .  S
C677        C678   1.428       .  A
C677        C954   1.427       .  A
C677       Br956   1.929       .  S
C678        C679   1.415       .  A
C679        C680   1.413       .  A
C679       Br686   1.939       .  S
C680        C681   1.419       .  A
C680       Br685   1.925       .  S
C681        C897   1.509       .  S
C681        C954   1.409       .  A
C682        C949   1.428       .  A
C682        C953   1.410   1_545  A
C682       Br683   1.926       .  S
Br684       C949   1.928       .  S
C687        C960   1.403       .  A
C687        C692   1.409       .  A
C687       Br694   1.926       .  S
C688        C959   1.404   1_545  A
C689        C962   1.408       .  A
C689       Br696   1.936   1_565  S
C690        C961   1.407       .  A
C690        C691   1.406       .  A
C690       Br695   1.929       .  S
C692       Br693   1.935       .  S
C697        C702   1.420       .  A
C697       Br704   1.926       .  S
C698        C699   1.412       .  A
C699        C700   1.409   1_655  A
C699       Br706   1.924       .  S
C700       Br705   1.928       .  S
C701        C702   1.414       .  A
C702       Br703   1.926       .  S
C707        C708   1.401       .  A
C707        C712   1.414       .  A
C707       Br986   1.930       .  S
C708        C709   1.424       .  A
C709        C710   1.422       .  A
C709       Br716   1.927       .  S
C710        C711   1.412       .  A
C710       Br715   1.931       .  S
C711        C712   1.429       .  A
C712       Br713   1.930       .  S
Br714       C979   1.931       .  S
C717        C718   1.430   1_554  A
C717        C722   1.417       .  A
C717       Br724   1.936   1_554  S
C719        C720   1.408   1_556  A
C719       Br726   1.940       .  S
C720        C721   1.423       .  A
C720       Br725   1.942       .  S
C722       Br723   1.932       .  S
C727        C728   1.425       .  A
C727        C732   1.408       .  A
C727       Br734   1.937       .  S
C728        C729   1.406       .  A
C729        C730   1.411       .  A
C729       Br736   1.929       .  S
C730        C731   1.419       .  A
C730      Br1007   1.933       .  S
C731        C732   1.405       .  A
C732       Br733   1.936       .  S
Br735      C1002   1.933   1_545  S
C737        C738   1.425       .  A
C737        C742   1.426       .  A
C737       Br744   1.930       .  S
C738        C739   1.422       .  A
C739        C740   1.413       .  A
C739       Br746   1.937       .  S
C740        C741   1.414       .  A
C740       Br745   1.938       .  S
C741        C742   1.416       .  A
C742       Br743   1.931       .  S
C747        C752   1.411   1_556  A
C747       Br754   1.935       .  S
C748        C749   1.418   1_455  A
C749        C750   1.415   1_556  A
C749       Br756   1.922       .  S
C750       Br755   1.929       .  S
C751        C752   1.428       .  A
C752       Br753   1.936       .  S
C757       C1030   1.411       .  A
C757      Br1036   1.928   1_455  S
C758       C1029   1.411   1_545  A
C758       C1031   1.430   1_545  A
C759       C1030   1.430       .  A
C759      Br1038   1.939       .  S
C760        C761   1.399       .  A
C760       Br765   1.934       .  S
C761        C762   1.411       .  A
C762       Br763   1.925       .  S
Br764      C1029   1.928   1_645  S
Br766      C1031   1.939   1_545  S
C767        C768   1.407       .  A
C767        C772   1.416       .  A
C767       Br774   1.927       .  S
C769        C770   1.417       .  A
C769       Br776   1.930       .  S
C770        C771   1.410       .  A
C770       Br775   1.927       .  S
C772       Br773   1.932       .  S
C777        C778   1.425       .  A
C777        C782   1.406       .  A
C777       Br784   1.939       .  S
C778        C779   1.406       .  A
C779        C780   1.412       .  A
C779       Br786   1.932       .  S
C780        C781   1.424       .  A
C780       Br785   1.936       .  S
C781        C782   1.406       .  A
C782      Br1055   1.936       .  S
Br783      C1054   1.936       .  S
C787       C1060   1.409       .  A
C787       Br794   1.929   1_565  S
C788        C828   1.486       .  S
C788       C1059   1.409       .  A
C788        C789   1.425       .  A
C789       Br796   1.938       .  S
C790        C791   1.400       .  A
C790       Br795   1.934       .  S
C791        C792   1.416       .  A
C792      Br1065   1.931       .  S
Br793      C1064   1.930   1_545  S
C797       C1070   1.412   1_545  A
C797       C1074   1.423   1_545  A
C797       Br804   1.926       .  S
C798        C827   1.503       .  S
C798       C1069   1.411       .  A
C798        C799   1.419       .  A
C799        C800   1.411       .  A
C799       Br806   1.917       .  S
C800        C801   1.409       .  A
C800       Br805   1.937       .  S
C801        C802   1.418       .  A
C802       C1069   1.423       .  A
C802      Br1075   1.927       .  S
Br803      C1074   1.927       .  S
C807        C808   1.408       .  A
C807        C812   1.420       .  A
C807       Br814   1.929   1_545  S
C808        C809   1.429       .  A
C809        C810   1.418       .  A
C809       Br816   1.930       .  S
C810        C811   1.405       .  A
C810       Br815   1.931       .  S
C811        C812   1.426       .  A
C812       Br813   1.932       .  S
O817       Cu825   2.102       .  S
O817        C827   1.292       .  A
O818       Cu825   2.078       .  S
O818        C828   1.289       .  A
O819       Cu825   1.943       .  S
O820       Cu825   1.980       .  S
O820        C830   1.270       .  A
O821        C830   1.292       .  A
O822       Cu826   2.060       .  S
O822        C829   1.289       .  A
O823       Cu826   1.932       .  S
O824       Cu826   1.984       .  S
C829       C1053   1.489       .  S
C830       C1080   1.511       .  S
O831       Cu839   2.099   1_655  S
O831        C841   1.292       .  A
O833       Cu839   1.928       .  S
O833        C843   1.261   1_455  A
O834       Cu839   1.963   1_655  S
O834        C844   1.268       .  A
O835       Cu840   2.097       .  S
O835        C844   1.291       .  A
O836       Cu840   2.095       .  S
O836        C843   1.292       .  A
O837       Cu840   1.956       .  S
O837        C842   1.266       .  A
O838       Cu840   1.974       .  S
O838        C841   1.268       .  A
Cu839      Cu840   2.351   1_455  S
C841       C1083   1.510       .  S
C842       C1020   1.489   1_655  S
C843       C1030   1.494   1_655  S
C844       C1043   1.512       .  S
O845       Cu853   2.067       .  S
O845        C855   1.288       .  A
O846       Cu853   2.061       .  S
O846        C856   1.287       .  A
O847       Cu853   1.943       .  S
O847        C857   1.265       .  A
O848       Cu853   1.960       .  S
O848        C858   1.269       .  A
O849       Cu854   2.095       .  S
O849        C858   1.290       .  A
O850       Cu854   2.078       .  S
O850        C857   1.290       .  A
O851       Cu854   1.946       .  S
O851        C856   1.266       .  A
O852       Cu854   2.000       .  S
O852        C855   1.272       .  A
Cu853      Cu854   2.365       .  S
C855       C1073   1.499       .  S
C856       C1063   1.473       .  S
C857       C1000   1.489       .  S
C858       C1013   1.507       .  S
O860       Cu867   2.078       .  S
O860        C870   1.287       .  A
O861       Cu867   1.987       .  S
O861        C871   1.271       .  A
O862       Cu867   1.952       .  S
O862        C872   1.267       .  A
O863       Cu868   2.060       .  S
O863        C872   1.285       .  A
O864       Cu868   2.089       .  S
O864        C871   1.290       .  A
O865       Cu868   1.987       .  S
O865        C870   1.273       .  A
O866       Cu868   1.970       .  S
O866        C869   1.269       .  A
Cu867      Cu868   2.357       .  S
C869        C990   1.505       .  S
C870       C1010   1.519       .  S
C871       C1040   1.501       .  S
C872       C1033   1.474       .  S
O873       Cu881   2.075       .  S
O873        C883   1.288       .  A
O874       Cu881   2.090       .  S
O874        C884   1.289       .  A
O875       Cu881   1.939       .  S
O875        C885   1.263       .  A
O876       Cu881   1.971       .  S
O876        C886   1.268       .  A
O877       Cu882   2.092       .  S
O877        C886   1.291       .  A
O879       Cu882   1.916       .  S
O879        C884   1.263       .  A
O880       Cu882   1.979       .  S
O880        C883   1.269       .  A
Cu881      Cu882   2.359       .  S
C883        C973   1.490       .  S
C884        C960   1.493       .  S
C885       C1023   1.497       .  S
C886        C983   1.510       .  S
O887       Cu895   2.112       .  S
O887        C897   1.294       .  A
O888       Cu895   2.087       .  S
O888        C898   1.290       .  A
O889       Cu895   1.947       .  S
O890       Cu895   1.985       .  S
O890        C900   1.271       .  A
O891        C900   1.290       .  A
O892       Cu896   2.059       .  S
O892        C899   1.288       .  A
O893       Cu896   1.933       .  S
O894       Cu896   1.981       .  S
C899       C1003   1.483       .  S
C900        C980   1.502       .  S
O901       Cu909   2.065       .  S
O901        C911   1.287       .  A
O902       Cu909   2.097       .  S
O902        C912   1.291       .  A
O903       Cu909   2.015       .  S
O903        C913   1.274       .  A
O904       Cu909   1.956       .  S
O904        C914   1.268       .  A
O905       Cu910   2.064       .  S
O905        C914   1.286       .  A
O906       Cu910   2.065       .  S
O906        C913   1.288       .  A
O907       Cu910   1.968       .  S
O907        C912   1.269       .  A
O908       Cu910   1.949       .  S
O908        C911   1.266       .  A
Cu909      Cu910   2.359       .  S
C911       C1050   1.488       .  S
C912        C930   1.515       .  S
C913        C950   1.516       .  S
C914        C943   1.474       .  S
O915       Cu923   2.071       .  S
O915        C925   1.288       .  A
O916       Cu923   2.070       .  S
O916        C926   1.286       .  A
O917       Cu923   1.931       .  S
O917        C927   1.264       .  A
O918       Cu923   1.981       .  S
O918        C928   1.271       .  A
O919       Cu924   2.089   1_655  S
O919        C928   1.290       .  A
O920       Cu924   2.093       .  S
O920        C927   1.290   1_455  A
O921       Cu924   1.933       .  S
O921        C926   1.266   1_455  A
O922       Cu924   1.990       .  S
O922        C925   1.271   1_455  A
Cu923      Cu924   2.358   1_655  S
C925        C970   1.494       .  S
C926        C963   1.490       .  S
C927        C993   1.495       .  S
C928        C933   1.508       .  S
C929        C930   1.423       .  A
C929        C934   1.415       .  A
C929       Br936   1.937       .  S
C930        C931   1.421       .  A
C931        C932   1.425       .  A
C931       Br938   1.931       .  S
C932        C933   1.417       .  A
C932       Br937   1.929       .  S
C933        C934   1.415       .  A
C934       Br935   1.936       .  S
C939        C940   1.422       .  A
C939        C944   1.403       .  A
C939       Br946   1.936       .  S
C941       Br948   1.927       .  S
C942        C943   1.414       .  A
C944       Br945   1.929       .  S
C949        C950   1.427   1_545  A
C950        C951   1.415       .  A
C951        C952   1.413       .  A
C951       Br958   1.939       .  S
C952        C953   1.420       .  A
C952       Br957   1.925       .  S
C954       Br955   1.927       .  S
C959        C964   1.409       .  A
C959       Br966   1.926       .  S
C961       Br968   1.935       .  S
C962        C963   1.406       .  A
C962       Br967   1.930       .  S
C964       Br965   1.935       .  S
C969        C974   1.421       .  A
C969       Br976   1.926       .  S
C970        C971   1.412       .  A
C971        C972   1.409   1_655  A
C971       Br978   1.924       .  S
C972       Br977   1.928       .  S
C973        C974   1.414       .  A
C974       Br975   1.926       .  S
C979        C980   1.402       .  A
C979        C984   1.414       .  A
C980        C981   1.425       .  A
C981        C982   1.420       .  A
C981       Br988   1.928       .  S
C982        C983   1.410       .  A
C982       Br987   1.931       .  S
C983        C984   1.428       .  A
C984       Br985   1.929       .  S
C989        C990   1.429   1_554  A
C989        C994   1.418       .  A
C989       Br996   1.935   1_554  S
C991        C992   1.407   1_556  A
C991       Br998   1.940       .  S
C992        C993   1.423       .  A
C992       Br997   1.941       .  S
C994       Br995   1.932       .  S
C999       C1000   1.425       .  A
C999       C1004   1.408       .  A
C999      Br1006   1.937       .  S
C1000      C1001   1.406       .  A
C1001      C1002   1.411       .  A
C1001     Br1008   1.929   1_565  S
C1002      C1003   1.419       .  A
C1003      C1004   1.405       .  A
C1004     Br1005   1.935       .  S
C1009      C1010   1.425       .  A
C1009      C1014   1.427       .  A
C1009     Br1016   1.931       .  S
C1010      C1011   1.422       .  A
C1011      C1012   1.412       .  A
C1011     Br1018   1.937       .  S
C1012      C1013   1.414       .  A
C1012     Br1017   1.938       .  S
C1013      C1014   1.417       .  A
C1014     Br1015   1.931       .  S
C1019      C1024   1.410   1_556  A
C1019     Br1026   1.936       .  S
C1020      C1021   1.418   1_455  A
C1021      C1022   1.414   1_556  A
C1021     Br1028   1.921       .  S
C1022     Br1027   1.929       .  S
C1023      C1024   1.428       .  A
C1024     Br1025   1.937       .  S
C1032      C1033   1.399       .  A
C1032     Br1037   1.933       .  S
C1033      C1034   1.411       .  A
C1034     Br1035   1.924       .  S
C1039      C1040   1.407       .  A
C1039      C1044   1.417       .  A
C1039     Br1046   1.927       .  S
C1041      C1042   1.418       .  A
C1041     Br1048   1.930       .  S
C1042      C1043   1.411       .  A
C1042     Br1047   1.926       .  S
C1044     Br1045   1.932       .  S
C1049      C1050   1.425       .  A
C1049      C1054   1.407       .  A
C1049     Br1056   1.939       .  S
C1050      C1051   1.406   1_565  A
C1051      C1052   1.412       .  A
C1051     Br1058   1.932       .  S
C1052      C1053   1.425   1_545  A
C1052     Br1057   1.936       .  S
C1053      C1054   1.407       .  A
C1059     Br1066   1.929       .  S
C1060      C1061   1.424       .  A
C1061     Br1068   1.938       .  S
C1062      C1063   1.400       .  A
C1062     Br1067   1.933       .  S
C1063      C1064   1.416       .  A
C1069     Br1076   1.925       .  S
C1070      C1071   1.418       .  A
C1071      C1072   1.412       .  A
C1071     Br1078   1.918       .  S
C1072      C1073   1.409       .  A
C1072     Br1077   1.936       .  S
C1073      C1074   1.418       .  A
C1079      C1080   1.407       .  A
C1079      C1084   1.420       .  A
C1079     Br1086   1.929       .  S
C1080      C1081   1.427       .  A
C1081      C1082   1.418       .  A
C1081     Br1088   1.928       .  S
C1082      C1083   1.406       .  A
C1082     Br1087   1.931       .  S
C1083      C1084   1.428       .  A
C1084     Br1085   1.932       .  S
