geometry optimzed in LAMMPS
_audit_creation_date              2020-12-01 
_audit_creation_method            'lammps2cif' 
_symmetry_space_group_name_H-M    'P1' 
_symmetry_Int_Tables_number       1 
_symmetry_cell_setting            triclinic 
loop_ 
_symmetry_equiv_pos_as_xyz 
  x,y,z 
_cell_length_a                    72.27200826 
_cell_length_b                    37.63227487207457 
_cell_length_c                    88.19458989804681 
_cell_angle_alpha                 89.88304903669582 
_cell_angle_beta                  89.71659495010825 
_cell_angle_gamma                 90.02179251763829 
loop_ 
_atom_site_label 
_atom_site_type_symbol 
_atom_site_fract_x 
_atom_site_fract_y 
_atom_site_fract_z 
_atom_site_charge 
N1          N  0.60900529  0.20963516  0.29657537    -0.26000
N2          N  0.60900612  0.21690891  0.31122896    -0.33800
C3          C  0.62424628  0.23552564  0.31462590     0.02400
C4          C  0.63433730  0.24080316  0.30150895     0.08400
C5          C  0.62430364  0.22404530  0.29018919    -0.04700
H6          H  0.62778480  0.24444755  0.32590768     0.09100
H7          H  0.62804519  0.22167558  0.27834066     0.10300
Cu8        Cu  0.58875686  0.20088615  0.32633117     0.44200
Cu9        Cu  0.58831867  0.17844905  0.28685373     0.42000
Cu10       Cu  0.55403261  0.14055106  0.31395216     0.43900
N11         N  0.56923178  0.17933732  0.34078998    -0.33400
N12         N  0.55684133  0.15564592  0.33649779    -0.27600
C13         C  0.54797547  0.14317337  0.34888865    -0.03700
C14         C  0.55498499  0.16035410  0.36149027     0.08500
C15         C  0.56842022  0.18310991  0.35591023     0.02300
H16         H  0.53771939  0.12222729  0.34879319     0.09900
H17         H  0.57788110  0.19921542  0.36243314     0.09000
N18         N  0.55420940  0.13148932  0.29067314    -0.34800
N19         N  0.56636543  0.14508850  0.28097889    -0.27000
C20         C  0.56213866  0.13395274  0.26691643    -0.02200
C21         C  0.54665859  0.11237466  0.26774990     0.06400
C22         C  0.54199696  0.11144164  0.28300780     0.04500
H23         H  0.56973327  0.14123351  0.25677584     0.09600
H24         H  0.53050555  0.09757787  0.28822255     0.08400
N25         N  0.43655414  0.50235803  0.20953966    -0.26000
N26         N  0.44186502  0.48898099  0.19635180    -0.33800
C27         C  0.42974734  0.46420525  0.19195589     0.02400
C28         C  0.41602041  0.46147533  0.20274574     0.08400
C29         C  0.42071884  0.48595608  0.21387557    -0.04700
H30         H  0.43032981  0.45056288  0.18116700     0.09100
H31         H  0.41278275  0.49265574  0.22390287     0.10300
Cu32       Cu  0.46274240  0.50816368  0.18259620     0.44200
Cu33       Cu  0.45067239  0.54463225  0.21977355     0.42000
Cu34       Cu  0.49885427  0.04932246  0.19665252     0.43900
N35         N  0.47691837  0.53880946  0.16701099    -0.33400
N36         N  0.48970019  0.05386686  0.17436404    -0.27600
C37         C  0.49881410  0.06337804  0.16157722    -0.03700
C38         C  0.48612012  0.06428443  0.14981327     0.08500
C39         C  0.47926377  0.53321202  0.15207713     0.02300
H40         H  0.51335821  0.07005343  0.16098585     0.09900
H41         H  0.47455472  0.50979434  0.14613579     0.09000
N42         N  0.50183763  0.04783555  0.22016897    -0.34800
N43         N  0.48985170  0.03375661  0.22990395    -0.27000
C44         C  0.49571886  0.04031196  0.24409686    -0.02200
C45         C  0.51203461  0.05948819  0.24332480     0.06400
C46         C  0.51552696  0.06365042  0.22796001     0.04500
H47         H  0.48825754  0.03281844  0.25427746     0.09600
H48         H  0.52678662  0.07817999  0.22273762     0.08400
N49         N  0.34718124  0.37224654  0.21043904    -0.26000
N50         N  0.34922555  0.37914477  0.19583176    -0.33800
C51         C  0.36299944  0.40270541  0.19397125     0.02400
C52         C  0.37007140  0.41113308  0.20810430     0.08400
C53         C  0.35956627  0.39157357  0.21830363    -0.04700
H54         H  0.36777765  0.41217558  0.18304947     0.09100
H55         H  0.36137331  0.39019640  0.23046109     0.10300
Cu56       Cu  0.33476809  0.35351375  0.17880042     0.44200
Cu57       Cu  0.32872583  0.33414558  0.21838542     0.42000
Cu58       Cu  0.30823267  0.27651587  0.18915961     0.43900
N59         N  0.32266259  0.32006251  0.16305523    -0.33400
N60         N  0.31386663  0.29043116  0.16671402    -0.27600
C61         C  0.30895179  0.27351743  0.15388009    -0.03700
C62         C  0.31475741  0.29388551  0.14161304     0.08500
C63         C  0.32328823  0.32318613  0.14787558     0.02300
H64         H  0.30146418  0.24864035  0.15351998     0.09900
H65         H  0.32991317  0.34479531  0.14182490     0.09000
N66         N  0.30208165  0.27358061  0.21225965    -0.34800
N67         N  0.30943682  0.29439597  0.22270861    -0.27000
C68         C  0.30184138  0.28654272  0.23625822    -0.02200
C69         C  0.28901996  0.25972381  0.23430679     0.06400
C70         C  0.28955223  0.25207062  0.21893173     0.04500
H71         H  0.30515116  0.29992394  0.24674342     0.09600
H72         H  0.28128579  0.23275094  0.21292692     0.08400
N73         N  0.18944788  0.10064094  0.27946146    -0.26000
N74         N  0.18881140  0.09120062  0.29389065    -0.33800
C75         C  0.17434590  0.06950331  0.29617175     0.02400
C76         C  0.16521437  0.06499333  0.28252918     0.08400
C77         C  0.17530578  0.08487859  0.27212420    -0.04700
H78         H  0.17054050  0.05876039  0.30713502     0.09100
H79         H  0.17213852  0.08881496  0.26026860     0.10300
Cu80       Cu  0.20575957  0.11151800  0.31056703     0.44200
Cu81       Cu  0.20894848  0.13682704  0.27130737     0.42000
Cu82       Cu  0.23427047  0.18572540  0.30087285     0.43900
N83         N  0.21915786  0.14198161  0.32658447    -0.33400
N84         N  0.22876419  0.17079435  0.32315001    -0.27600
C85         C  0.23381063  0.18701466  0.33608421    -0.03700
C86         C  0.22731686  0.16702565  0.34818199     0.08500
C87         C  0.21806413  0.13869792  0.34173808     0.02300
H88         H  0.24146553  0.21168615  0.33664185     0.09900
H89         H  0.21027839  0.11825248  0.34759083     0.09000
N90         N  0.23928376  0.19058414  0.27771537    -0.34800
N91         N  0.23026047  0.17292319  0.26709265    -0.27000
C92         C  0.23756092  0.18124505  0.25347459    -0.02200
C93         C  0.25183840  0.20517391  0.25557557     0.06400
C94         C  0.25253706  0.21052028  0.27111148     0.04500
H95         H  0.23296586  0.17028040  0.24281226     0.09600
H96         H  0.26212229  0.22713027  0.27726719     0.08400
N97         N  0.10816186  0.48853538  0.28392404    -0.26000
N98         N  0.09278531  0.99307659  0.29846792    -0.33800
C99         C  0.10685735  0.01377206  0.30281406     0.02400
C100        C  0.11862548  0.01864616  0.29066859     0.08400
C101        C  0.11072214  0.99968861  0.27883428    -0.04700
H102        H  0.10878094  0.02342811  0.31424465     0.09100
H103        H  0.11631410  0.99611679  0.26753153     0.10300
Cu104      Cu  0.08230545  0.48958494  0.31123707     0.44200
Cu105      Cu  0.09076423  0.45083769  0.27382005     0.42000
Cu106      Cu  0.05468676  0.41769603  0.29967481     0.43900
N107        N  0.06427753  0.46404271  0.32593189    -0.33400
N108        N  0.05459106  0.43603577  0.32173634    -0.27600
C109        C  0.04705667  0.42069685  0.33408348    -0.03700
C110        C  0.05210498  0.44022780  0.34665200     0.08500
C111        C  0.06300751  0.46762986  0.34107044     0.02300
H112        H  0.03952082  0.39586429  0.33402159     0.09900
H113        H  0.07092282  0.48652496  0.34762291     0.09000
N114        N  0.05704686  0.40325859  0.27714353    -0.34800
N115        N  0.06997127  0.41476942  0.26765114    -0.27000
C116        C  0.06691776  0.40017738  0.25392762    -0.02200
C117        C  0.05138390  0.37857872  0.25487369     0.06400
C118        C  0.04553444  0.38127205  0.26979322     0.04500
H119        H  0.07524719  0.40525395  0.24392965     0.09600
H120        H  0.03366557  0.36864345  0.27500717     0.08400
N121        N  0.94661616  0.24368388  0.20554818    -0.26000
N122        N  0.94388580  0.24558423  0.19078129    -0.33800
C123        C  0.92726553  0.23222030  0.18742461     0.02400
C124        C  0.91887038  0.22101838  0.20062812     0.08400
C125        C  0.93150904  0.22858791  0.21205448    -0.04700
H126        H  0.92168014  0.23069420  0.17608213     0.09100
H127        H  0.92978392  0.22395876  0.22409234     0.10300
Cu128      Cu  0.96261807  0.26534939  0.17539500     0.44200
Cu129      Cu  0.97115934  0.26387079  0.21471342     0.42000
Cu130      Cu  0.00689678  0.29502474  0.18591475     0.43900
N131        N  0.98204750  0.28131378  0.15977970    -0.33400
N132        N  0.99895083  0.29157098  0.16327496    -0.27600
C133        C  0.00802992  0.30019934  0.15035230    -0.03700
C134        C  0.99601600  0.29545283  0.13828209     0.08500
C135        C  0.97974430  0.28326194  0.14475391     0.02300
H136        H  0.02202728  0.31032605  0.14982573     0.09900
H137        H  0.96705520  0.27635388  0.13901126     0.09000
N138        N  0.00861235  0.30087374  0.20940172    -0.34800
N139        N  0.99610672  0.29007828  0.21947523    -0.27000
C140        C  0.00136571  0.30104303  0.23332136    -0.02200
C141        C  0.01779784  0.31967311  0.23196981     0.06400
C142        C  0.02202051  0.31891797  0.21664381     0.04500
H143        H  0.99342291  0.29686213  0.24360226     0.09600
H144        H  0.03360181  0.33157331  0.21101910     0.08400
N145        N  0.84944010  0.13664304  0.21507736    -0.26000
N146        N  0.84775426  0.15109514  0.20149813    -0.33800
C147        C  0.86205421  0.17301640  0.19893286     0.02400
C148        C  0.87357249  0.17242835  0.21147674     0.08400
C149        C  0.86500879  0.14922530  0.22156495    -0.04700
H150        H  0.86418954  0.18688146  0.18832693     0.09100
H151        H  0.87018883  0.14079368  0.23247964     0.10300
Cu152      Cu  0.82842680  0.13573014  0.18560277     0.44200
Cu153      Cu  0.83098225  0.09799294  0.22284331     0.42000
Cu154      Cu  0.80223548  0.05673618  0.19339344     0.43900
N155        N  0.81510131  0.10703241  0.16895931    -0.33400
N156        N  0.80664186  0.07646266  0.17156882    -0.27600
C157        C  0.80259840  0.06122036  0.15817826    -0.03700
C158        C  0.80867764  0.08358307  0.14666013     0.08500
C159        C  0.81636544  0.11243198  0.15392028     0.02300
H160        H  0.79622422  0.03538919  0.15693380     0.09900
H161        H  0.82364342  0.13440107  0.14866452     0.09000
N162        N  0.79955999  0.04631858  0.21654248    -0.34800
N163        N  0.81006109  0.06099138  0.22708195    -0.27000
C164        C  0.80454041  0.04913493  0.24077820    -0.02200
C165        C  0.78979637  0.02617935  0.23886743     0.06400
C166        C  0.78702035  0.02494290  0.22332114     0.04500
H167        H  0.81066310  0.05707872  0.25141471     0.09600
H168        H  0.77667954  0.00973708  0.21733024     0.08400
N169        N  0.70081745  0.32908038  0.28315557    -0.26000
N170        N  0.70369644  0.31666610  0.29695889    -0.33800
C171        C  0.69023331  0.29364463  0.30063091     0.02400
C172        C  0.67810644  0.29123873  0.28856717     0.08400
C173        C  0.68535139  0.31387865  0.27759717    -0.04700
H174        H  0.68908186  0.28080680  0.31157314     0.09100
H175        H  0.67933540  0.32011526  0.26670286     0.10300
Cu176      Cu  0.72347479  0.33603152  0.31155437     0.44200
Cu177      Cu  0.71755909  0.36879255  0.27389208     0.42000
Cu178      Cu  0.74429751  0.41914864  0.30242442     0.43900
N179        N  0.73537371  0.36830608  0.32764965    -0.33400
N180        N  0.74167204  0.40052897  0.32463786    -0.27600
C181        C  0.74499734  0.41730016  0.33784857    -0.03700
C182        C  0.74069374  0.39417391  0.34965130     0.08500
C183        C  0.73481272  0.36337365  0.34273026     0.02300
H184        H  0.74974975  0.44446276  0.33878216     0.09900
H185        H  0.72921590  0.34000936  0.34826358     0.09000
N186        N  0.74656356  0.42623218  0.27899871    -0.34800
N187        N  0.73704931  0.40804098  0.26882187    -0.27000
C188        C  0.74259202  0.41800114  0.25485952    -0.02200
C189        C  0.75621907  0.44356758  0.25622807     0.06400
C190        C  0.75838633  0.44817171  0.27171687     0.04500
H191        H  0.73731147  0.40691123  0.24442802     0.09600
H192        H  0.76807112  0.46557021  0.27735187     0.08400
N193        N  0.09802743  0.35807390  0.45270943    -0.26000
N194        N  0.09541585  0.34954206  0.43833154    -0.33800
C195        C  0.10842106  0.32619814  0.43401615     0.02400
C196        C  0.11985616  0.31959550  0.44616041     0.08400
C197        C  0.11286245  0.34012390  0.45791382    -0.04700
H198        H  0.11003349  0.31620711  0.42258656     0.09100
H199        H  0.11860615  0.34320099  0.46913960     0.10300
Cu200      Cu  0.07664528  0.37360162  0.42398424     0.44200
Cu201      Cu  0.08229118  0.39649928  0.46387880     0.42000
Cu202      Cu  0.05638611  0.45275281  0.43755249     0.43900
N203        N  0.06272463  0.40852444  0.40998739    -0.33400
N204        N  0.05620466  0.43921866  0.41486714    -0.27600
C205        C  0.05054347  0.45859348  0.40292433    -0.03700
C206        C  0.05343993  0.43884816  0.38992907     0.08500
C207        C  0.06118538  0.40721484  0.39482559     0.02300
H208        H  0.04532640  0.48546985  0.40360667     0.09900
H209        H  0.06661069  0.38601591  0.38782850     0.09000
N210        N  0.05486887  0.45664401  0.46089058    -0.34800
N211        N  0.06397276  0.43638861  0.47059560    -0.27000
C212        C  0.05846464  0.44474940  0.48477286    -0.02200
C213        C  0.04520600  0.47126747  0.48387598     0.06400
C214        C  0.04337145  0.47817236  0.46854503     0.04500
H215        H  0.06332691  0.43175117  0.49495037     0.09600
H216        H  0.03405307  0.49674833  0.46318302     0.08400
N217        N  0.92535598  0.08491712  0.53197460    -0.26000
N218        N  0.92108528  0.08508031  0.54654521    -0.33800
C219        C  0.90581161  0.10464890  0.54872061     0.02400
C220        C  0.89998766  0.11757364  0.53480863     0.08400
C221        C  0.91280159  0.10466315  0.52442999    -0.04700
H222        H  0.89969369  0.10945935  0.55973582     0.09100
H223        H  0.91293667  0.10916748  0.51231416     0.10300
Cu224      Cu  0.93647365  0.06018046  0.56311299     0.44200
Cu225      Cu  0.94825996  0.05713542  0.52388458     0.42000
Cu226      Cu  0.97859668  0.01654857  0.55336528     0.43900
N227        N  0.95426547  0.03926383  0.57904028    -0.33400
N228        N  0.97027703  0.02417408  0.57572379    -0.27600
C229        C  0.97855730  0.01415221  0.58873674    -0.03700
C230        C  0.96699744  0.02333389  0.60070581     0.08500
C231        C  0.95175955  0.03893377  0.59411125     0.02300
H232        H  0.99156033  0.00003115  0.58937800     0.09900
H233        H  0.93958847  0.04899735  0.59985621     0.09000
N234        N  0.98215690  0.01112836  0.53005857    -0.34800
N235        N  0.97144367  0.02572377  0.51960805    -0.27000
C236        C  0.97768979  0.01615026  0.50582491    -0.02200
C237        C  0.99294323  0.99445925  0.50762910     0.06400
C238        C  0.99541136  0.99184023  0.52314877     0.04500
H239        H  0.97142678  0.02407983  0.49523244     0.09600
H240        H  0.00595112  0.97693649  0.52906024     0.08400
N241        N  0.83414920  0.21056972  0.53439570    -0.26000
N242        N  0.82987843  0.19956407  0.54822539    -0.33800
C243        C  0.84189857  0.17453241  0.55257854     0.02400
C244        C  0.85450633  0.16919398  0.54106423     0.08400
C245        C  0.84923568  0.19244255  0.52958687    -0.04700
H246        H  0.84195491  0.16222114  0.56368085     0.09100
H247        H  0.85614454  0.19672638  0.51882689     0.10300
Cu248      Cu  0.81015854  0.22189346  0.56215800     0.44200
Cu249      Cu  0.81937164  0.25164938  0.52384910     0.42000
Cu250      Cu  0.79137015  0.30406068  0.55111291     0.43900
N251        N  0.79668453  0.25453326  0.57728644    -0.33400
N252        N  0.79062436  0.28639503  0.57349700    -0.27600
C253        C  0.78551234  0.30373266  0.58619194    -0.03700
C254        C  0.78838326  0.28145237  0.59849507     0.08500
C255        C  0.79547557  0.25045292  0.59239140     0.02300
H256        H  0.78088842  0.33106079  0.58652228     0.09900
H257        H  0.80083643  0.22779229  0.59852452     0.09000
N258        N  0.79159567  0.31186470  0.52771345    -0.34800
N259        N  0.80134828  0.29304640  0.51782791    -0.27000
C260        C  0.79702690  0.30407324  0.50371286    -0.02200
C261        C  0.78397077  0.33098644  0.50474368     0.06400
C262        C  0.78092987  0.33518192  0.52016656     0.04500
H263        H  0.80268006  0.29279632  0.49341122     0.09600
H264        H  0.77131583  0.35315297  0.52560641     0.08400
N265        N  0.69577680  0.50926762  0.45672956    -0.26000
N266        N  0.69542666  0.51843306  0.44226500    -0.33800
C267        C  0.66167542  0.96341999  0.44466052     0.02400
C268        C  0.65557207  0.98246725  0.45702975     0.08400
C269        C  0.67000348  0.98102174  0.46739301    -0.04700
H270        H  0.65458485  0.96010945  0.43397308     0.09100
H271        H  0.67062509  0.99374229  0.47837172     0.10300
Cu272      Cu  0.71187741  0.49544776  0.42566490     0.44200
Cu273      Cu  0.71400578  0.47054439  0.46487103     0.42000
Cu274      Cu  0.73816561  0.41759470  0.43576973     0.43900
N275        N  0.72530660  0.46370472  0.40991659    -0.33400
N276        N  0.73411378  0.43404086  0.41342607    -0.27600
C277        C  0.73987801  0.41829973  0.40052429    -0.03700
C278        C  0.73455354  0.43936841  0.38836460     0.08500
C279        C  0.72544419  0.46791690  0.39477457     0.02300
H280        H  0.74747018  0.39356279  0.40006794     0.09900
H281        H  0.71889755  0.48968235  0.38883268     0.09000
N282        N  0.74186065  0.41115440  0.45907183    -0.34800
N283        N  0.73327639  0.43044895  0.46949440    -0.27000
C284        C  0.73919773  0.42026807  0.48328403    -0.02200
C285        C  0.75211483  0.39340789  0.48154881     0.06400
C286        C  0.75344970  0.38827728  0.46600892     0.04500
H287        H  0.73449767  0.43174618  0.49385775     0.09600
H288        H  0.76224219  0.36953986  0.46012064     0.08400
N289        N  0.59640118  0.09211566  0.47059128    -0.26000
N290        N  0.59378503  0.08027275  0.45666114    -0.33800
C291        C  0.60610168  0.05444315  0.45373715     0.02400
C292        C  0.61709324  0.04969808  0.46643331     0.08400
C293        C  0.61053933  0.07409709  0.47688157    -0.04700
H294        H  0.60746664  0.04152217  0.44285110     0.09100
H295        H  0.61602240  0.07915534  0.48806273     0.10300
Cu296      Cu  0.57571231  0.10282671  0.44115726     0.44200
Cu297      Cu  0.58133036  0.13384438  0.47985859     0.42000
Cu298      Cu  0.55700131  0.18693148  0.45177610     0.43900
N299        N  0.56282899  0.13664312  0.42590182    -0.33400
N300        N  0.55719272  0.16885013  0.42965502    -0.27600
C301        C  0.55254416  0.18671477  0.41701414    -0.03700
C302        C  0.55505752  0.16443516  0.40474316     0.08500
C303        C  0.56158920  0.13287318  0.41077877     0.02300
H304        H  0.54833811  0.21429341  0.41672991     0.09900
H305        H  0.56657392  0.11003757  0.40454888     0.09000
N306        N  0.55499697  0.19490970  0.47491658    -0.34800
N307        N  0.56363554  0.17554734  0.48521181    -0.27000
C308        C  0.55796765  0.18582397  0.49908390    -0.02200
C309        C  0.54511828  0.21278155  0.49742053     0.06400
C310        C  0.54361609  0.21789299  0.48192240     0.04500
H311        H  0.56233474  0.17363141  0.50958679     0.09600
H312        H  0.53445695  0.23592597  0.47604880     0.08400
N313        N  0.43014832  0.32112307  0.53998703    -0.26000
N314        N  0.42345238  0.30648192  0.55247476    -0.33800
C315        C  0.40598504  0.31723564  0.55462072     0.02400
C316        C  0.40126149  0.33994990  0.54299778     0.08400
C317        C  0.41692095  0.34192920  0.53380321    -0.04700
H318        H  0.39762404  0.31046323  0.56442621     0.09100
H319        H  0.41878931  0.35806956  0.52374180     0.10300
Cu320      Cu  0.43890422  0.27744449  0.56760859     0.44200
Cu321      Cu  0.45744797  0.31161738  0.53343525     0.42000
Cu322      Cu  0.48722426  0.27072291  0.56388172     0.43900
N323        N  0.45564819  0.26166520  0.58516655    -0.33400
N324        N  0.47388795  0.26104198  0.58441961    -0.27600
C325        C  0.48060167  0.25350679  0.59833456    -0.03700
C326        C  0.46565220  0.24912207  0.60813025     0.08500
C327        C  0.45017532  0.25431211  0.59934982     0.02300
H328        H  0.49513596  0.25148250  0.60107430     0.09900
H329        H  0.43590599  0.25407703  0.60313331     0.09000
N330        N  0.49423082  0.27574488  0.54105114    -0.34800
N331        N  0.48387836  0.29040693  0.53035823    -0.27000
C332        C  0.49224502  0.28570079  0.51685166    -0.02200
C333        C  0.50844448  0.26696627  0.51907242     0.06400
C334        C  0.50931080  0.26124065  0.53455990     0.04500
H335        H  0.48643041  0.29361426  0.50608662     0.09600
H336        H  0.51966354  0.24632064  0.54067727     0.08400
N337        N  0.34055641  0.44806288  0.53146315    -0.26000
N338        N  0.33875077  0.43478745  0.54527384    -0.33800
C339        C  0.35178091  0.41006116  0.54754536     0.02400
C340        C  0.36250571  0.40729180  0.53454278     0.08400
C341        C  0.35501294  0.43192708  0.52456363    -0.04700
H342        H  0.35371917  0.39645408  0.55822624     0.09100
H343        H  0.35995870  0.43818348  0.51327496     0.10300
Cu344      Cu  0.32042252  0.45292378  0.56152450     0.44200
Cu345      Cu  0.32326660  0.48855399  0.52355441     0.42000
Cu346      Cu  0.28275126  0.03165613  0.55531416     0.37500
N347        N  0.30551854  0.47962160  0.57794560    -0.33400
N348        N  0.28886728  0.02916954  0.57836609    -0.27600
C349        C  0.27818791  0.03620224  0.59059534    -0.03700
C350        C  0.28913185  0.03358894  0.60342316     0.08500
C351        C  0.30504552  0.47284289  0.59290223     0.02300
H352        H  0.26376369  0.04377916  0.59015047     0.09900
H353        H  0.31203500  0.45084358  0.59832214     0.09000
N354        N  0.28247810  0.03847179  0.53182449    -0.34800
N355        N  0.29578968  0.02857707  0.52234138    -0.27000
C356        C  0.29120937  0.03895478  0.50821791    -0.02200
C357        C  0.27434296  0.05632552  0.50880185     0.06400
C358        C  0.26921573  0.05542596  0.52396213     0.04500
H359        H  0.29975169  0.03483520  0.49826508     0.09600
H360        H  0.25691392  0.06671765  0.52904045     0.08400
N361        N  0.18826007  0.23316731  0.45899909    -0.26000
N362        N  0.18884349  0.24285974  0.44459628    -0.33800
C363        C  0.17513143  0.26596730  0.44186298     0.02400
C364        C  0.16532962  0.27120284  0.45519356     0.08400
C365        C  0.17418649  0.25035885  0.46589164    -0.04700
H366        H  0.17214803  0.27697253  0.43080345     0.09100
H367        H  0.17001729  0.24631979  0.47756485     0.10300
Cu368      Cu  0.20605420  0.22046538  0.42852496     0.44200
Cu369      Cu  0.20513474  0.19320518  0.46762450     0.42000
Cu370      Cu  0.23016594  0.14084681  0.43903603     0.43900
N371        N  0.21888141  0.18772853  0.41297954    -0.33400
N372        N  0.22678482  0.15724110  0.41662306    -0.27600
C373        C  0.23147092  0.14005972  0.40377933    -0.03700
C374        C  0.22654649  0.16111463  0.39155281     0.08500
C375        C  0.21858473  0.19110902  0.39781594     0.02300
H376        H  0.23770279  0.11394227  0.40336338     0.09900
H377        H  0.21205520  0.21281054  0.39181838     0.09000
N378        N  0.23224972  0.13277468  0.46237504    -0.34800
N379        N  0.22299455  0.15139653  0.47262645    -0.27000
C380        C  0.22762625  0.13980789  0.48653887    -0.02200
C381        C  0.24055303  0.11294924  0.48505827     0.06400
C382        C  0.24314877  0.10911713  0.46955385     0.04500
H383        H  0.22228413  0.15074724  0.49701788     0.09600
H384        H  0.25233691  0.09074981  0.46386458     0.08400
N385        N  0.20842538  0.31018664  0.78781706    -0.26000
N386        N  0.20812917  0.29950748  0.80208600    -0.33800
C387        C  0.19275096  0.28067766  0.80473592     0.02400
C388        C  0.18274950  0.27893938  0.79153110     0.08400
C389        C  0.19304865  0.29789320  0.78088853    -0.04700
H390        H  0.18874017  0.27028398  0.81571964     0.09100
H391        H  0.18921387  0.30387689  0.76931849     0.10300
Cu392      Cu  0.22687246  0.31447923  0.81822536     0.44200
Cu393      Cu  0.22937267  0.34400158  0.78007421     0.42000
Cu394      Cu  0.26196859  0.37641006  0.81046888     0.43900
N395        N  0.24218955  0.33747789  0.83505997    -0.33400
N396        N  0.25541884  0.36094811  0.83254084    -0.27600
C397        C  0.26104289  0.37410425  0.84598574    -0.03700
C398        C  0.25050181  0.35838877  0.85736423     0.08500
C399        C  0.23882148  0.33517267  0.84997061     0.02300
H400        H  0.27100067  0.39533474  0.84729239     0.09900
H401        H  0.22795187  0.31912601  0.85495376     0.09000
N402        N  0.26331568  0.38939911  0.78748738    -0.34800
N403        N  0.25182619  0.37831091  0.77680969    -0.27000
C404        C  0.25664371  0.39363226  0.76355321    -0.02200
C405        C  0.27182877  0.41539650  0.76599196     0.06400
C406        C  0.27565063  0.41193739  0.78124643     0.04500
H407        H  0.24933355  0.38963533  0.75303001     0.09600
H408        H  0.28641110  0.42544429  0.78745356     0.08400
N409        N  0.33119236  0.10560837  0.71521288    -0.26000
N410        N  0.32786690  0.12281704  0.70243925    -0.33800
C411        C  0.34089670  0.14754947  0.70019221     0.02400
C412        C  0.35332786  0.14604265  0.71195091     0.08400
C413        C  0.34679435  0.11910563  0.72141185    -0.04700
H414        H  0.34205990  0.16364461  0.69003938     0.09100
H415        H  0.35336070  0.10886264  0.73151486     0.10300
Cu416      Cu  0.30909257  0.10731361  0.68629219     0.44200
Cu417      Cu  0.31427619  0.06306369  0.72194839     0.42000
Cu418      Cu  0.28432394  0.02810904  0.69070279     0.43900
N419        N  0.29740491  0.08146898  0.66815904    -0.33400
N420        N  0.28814739  0.05139417  0.66951817    -0.27600
C421        C  0.28465731  0.03856760  0.65554448    -0.03700
C422        C  0.29237338  0.06172175  0.64499956     0.08500
C423        C  0.30040648  0.08836406  0.65342475     0.02300
H424        H  0.27855278  0.01287771  0.65328819     0.09900
H425        H  0.30900196  0.10978724  0.64920155     0.09000
N426        N  0.28252948  0.01331572  0.71341943    -0.34800
N427        N  0.29300962  0.02547280  0.72456629    -0.27000
C428        C  0.28699021  0.01121475  0.73774110    -0.02200
C429        C  0.27204911  0.98913740  0.73471992     0.06400
C430        C  0.26971581  0.99115042  0.71922154     0.04500
H431        H  0.29285385  0.01717855  0.74869820     0.09600
H432        H  0.25915587  0.97800305  0.71263380     0.08400
N433        N  0.62101348  0.39875601  0.78372515    -0.26000
N434        N  0.60258999  0.95466284  0.79528898    -0.33800
C435        C  0.61666918  0.97701843  0.79793363     0.02400
C436        C  0.62754852  0.97910130  0.78499847     0.08400
C437        C  0.61893819  0.95700260  0.77460431    -0.04700
H438        H  0.61896294  0.99016384  0.80865698     0.09100
H439        H  0.62368271  0.95091509  0.76325387     0.10300
Cu440      Cu  0.61086459  0.36314139  0.81330840     0.44200
Cu441      Cu  0.59475498  0.38359825  0.77599469     0.42000
Cu442      Cu  0.56292460  0.35360905  0.80677168     0.43900
N443        N  0.59211171  0.35336399  0.83054898    -0.33400
N444        N  0.57405537  0.35187178  0.82843038    -0.27600
C445        C  0.56557890  0.34802345  0.84199565    -0.03700
C446        C  0.57911379  0.34687580  0.85309005     0.08500
C447        C  0.59570136  0.35019688  0.84540427     0.02300
H448        H  0.55078891  0.34557268  0.84360308     0.09900
H449        H  0.60939413  0.35090839  0.85028567     0.09000
N450        N  0.55739512  0.34988458  0.78371027    -0.34800
N451        N  0.56865108  0.36034664  0.77266326    -0.27000
C452        C  0.56103603  0.35137776  0.75927981    -0.02200
C453        C  0.54430265  0.33445302  0.76200351     0.06400
C454        C  0.54246415  0.33406912  0.77764068     0.04500
H455        H  0.56745279  0.35597748  0.74834209     0.09600
H456        H  0.53139228  0.32230518  0.78423258     0.08400
N457        N  0.43001041  0.20742753  0.72152562    -0.26000
N458        N  0.42649794  0.20415230  0.70691533    -0.33800
C459        C  0.41000440  0.18858710  0.70506980     0.02400
C460        C  0.40250542  0.18138910  0.71920571     0.08400
C461        C  0.41566600  0.19340633  0.72944382    -0.04700
H462        H  0.40413909  0.18229823  0.69414230     0.09100
H463        H  0.41477238  0.19240101  0.74168502     0.10300
Cu464      Cu  0.44428067  0.21898775  0.68976305     0.44200
Cu465      Cu  0.45447514  0.23181527  0.72887876     0.42000
Cu466      Cu  0.48778566  0.25716714  0.69780528     0.43900
N467        N  0.46310135  0.23192833  0.67308156    -0.33400
N468        N  0.47944236  0.24618440  0.67573080    -0.27600
C469        C  0.48793242  0.25256779  0.66232834    -0.03700
C470        C  0.47623188  0.24185153  0.65075987     0.08500
C471        C  0.46066831  0.22870946  0.65810364     0.02300
H472        H  0.50133887  0.26508577  0.66107543     0.09900
H473        H  0.44822641  0.21812228  0.65307316     0.09000
N474        N  0.49154016  0.26688695  0.72085810    -0.34800
N475        N  0.47982296  0.25818003  0.73187480    -0.27000
C476        C  0.48684009  0.26939978  0.74516587    -0.02200
C477        C  0.50367519  0.28589566  0.74243762     0.06400
C478        C  0.50619520  0.28373239  0.72688869     0.04500
H479        H  0.48012362  0.26593817  0.75605844     0.09600
H480        H  0.51776090  0.29372704  0.72033644     0.08400
N481        N  0.93498203  0.45860321  0.70906632    -0.26000
N482        N  0.92993941  0.46232765  0.69479313    -0.33800
C483        C  0.91395660  0.44527806  0.69247849     0.02400
C484        C  0.90832920  0.42980528  0.70599106     0.08400
C485        C  0.92207646  0.43871895  0.71630596    -0.04700
H486        H  0.90721343  0.44410998  0.68158541     0.09100
H487        H  0.92260874  0.43136126  0.72815426     0.10300
Cu488      Cu  0.94487490  0.48912328  0.67857800     0.44200
Cu489      Cu  0.95936525  0.48232303  0.71687592     0.42000
Cu490      Cu  0.00098134  0.00654440  0.68709294     0.43900
N491        N  0.96146895  0.51140295  0.66220486    -0.33400
N492        N  0.99068834  0.99874845  0.66524516    -0.27600
C493        C  0.99737770  0.00913626  0.65160061    -0.03700
C494        C  0.98437350  0.00066855  0.64063344     0.08500
C495        C  0.95755886  0.51478205  0.64744500     0.02300
H496        H  0.01025073  0.02330083  0.64988342     0.09900
H497        H  0.94467214  0.50674022  0.64228727     0.09000
N498        N  0.00537495  0.01418652  0.71029744    -0.34800
N499        N  0.99454402  0.00212977  0.72135571    -0.27000
C500        C  0.00112437  0.01369732  0.73470376    -0.02200
C501        C  0.01674627  0.03397377  0.73204604     0.06400
C502        C  0.01907337  0.03369761  0.71643170     0.04500
H503        H  0.99472783  0.00835417  0.74559024     0.09600
H504        H  0.02964658  0.04727198  0.70992296     0.08400
N505        N  0.11260573  0.20259082  0.77511893    -0.26000
N506        N  0.11003459  0.21868980  0.78826163    -0.33800
C507        C  0.12421729  0.24073749  0.79085494     0.02400
C508        C  0.13653437  0.23848628  0.77882530     0.08400
C509        C  0.12862380  0.21430247  0.76893196    -0.04700
H510        H  0.12575848  0.25606436  0.80113150     0.09100
H511        H  0.13457850  0.20444284  0.75848252     0.10300
Cu512      Cu  0.08943316  0.20638031  0.80372263     0.44200
Cu513      Cu  0.09464142  0.16318116  0.76756797     0.42000
Cu514      Cu  0.06219278  0.13009793  0.79732348     0.43900
N515        N  0.07350403  0.18345957  0.82062008    -0.33400
N516        N  0.06419864  0.15362800  0.81866480    -0.27600
C517        C  0.05753581  0.14271995  0.83221803    -0.03700
C518        C  0.06286638  0.16720493  0.84313714     0.08500
C519        C  0.07282415  0.19271264  0.83532029     0.02300
H520        H  0.04968934  0.11858398  0.83401097     0.09900
H521        H  0.07997210  0.21528288  0.84011337     0.09000
N522        N  0.06170778  0.11536727  0.77450384    -0.34800
N523        N  0.07328199  0.12698124  0.76390041    -0.27000
C524        C  0.06834275  0.11303567  0.75046092    -0.02200
C525        C  0.05294207  0.09175365  0.75263803     0.06400
C526        C  0.04914208  0.09386417  0.76803938     0.04500
H527        H  0.07524832  0.11858331  0.73980173     0.09600
H528        H  0.03789015  0.08133170  0.77414761     0.08400
N529        N  0.83966572  0.34422230  0.70510067    -0.26000
N530        N  0.83655570  0.35469369  0.69102065    -0.33800
C531        C  0.84970405  0.37779888  0.68676960     0.02400
C532        C  0.86182992  0.38229234  0.69862428     0.08400
C533        C  0.85509257  0.36061618  0.71017045    -0.04700
H534        H  0.85073246  0.38958271  0.67559211     0.09100
H535        H  0.86109729  0.35648577  0.72125018     0.10300
Cu536      Cu  0.81636638  0.33443357  0.67697939     0.44200
Cu537      Cu  0.82261332  0.30701040  0.71591602     0.42000
Cu538      Cu  0.79277458  0.25740131  0.68942420     0.43900
N539        N  0.80107453  0.30315418  0.66248838    -0.33400
N540        N  0.79330163  0.27302447  0.66681926    -0.27600
C541        C  0.78674250  0.25615889  0.65450581    -0.03700
C542        C  0.79036573  0.27705196  0.64188420     0.08500
C543        C  0.79949590  0.30663129  0.64738752     0.02300
H544        H  0.78026116  0.23024812  0.65467477     0.09900
H545        H  0.80565814  0.32791234  0.64082876     0.09000
N546        N  0.79148992  0.25315873  0.71291171    -0.34800
N547        N  0.80199880  0.27101542  0.72251268    -0.27000
C548        C  0.79646523  0.26333413  0.73676624    -0.02200
C549        C  0.78178836  0.23969321  0.73611375     0.06400
C550        C  0.77907031  0.23381574  0.72078324     0.04500
H551        H  0.80246308  0.27465434  0.74687934     0.09600
H552        H  0.76861825  0.21730316  0.71560647     0.08400
N553        N  0.69442774  0.06837721  0.78918158    -0.26000
N554        N  0.69660804  0.05887017  0.80350518    -0.33800
C555        C  0.68363176  0.03489840  0.80725955     0.02400
C556        C  0.67264141  0.02874033  0.79479832     0.08400
C557        C  0.67989925  0.05031647  0.78342468    -0.04700
H558        H  0.68163134  0.02430653  0.81856840     0.09100
H559        H  0.67438397  0.05424941  0.77216017     0.10300
Cu560      Cu  0.71451930  0.08298116  0.81856951     0.44200
Cu561      Cu  0.71027867  0.10883929  0.77930901     0.42000
Cu562      Cu  0.73592222  0.16365590  0.80684355     0.43900
N563        N  0.72726625  0.11707737  0.83365383    -0.33400
N564        N  0.73423584  0.14806409  0.82947921    -0.27600
C565        C  0.73915271  0.16621803  0.84197146    -0.03700
C566        C  0.73530563  0.14542318  0.85457842     0.08500
C567        C  0.72776677  0.11441300  0.84886563     0.02300
H568        H  0.74469516  0.19291355  0.84191325     0.09900
H569        H  0.72200147  0.09250415  0.85529184     0.09000
N570        N  0.73765841  0.16959238  0.78339073    -0.34800
N571        N  0.72845034  0.15001597  0.77349999    -0.27000
C572        C  0.73365107  0.15961488  0.75939508    -0.02200
C573        C  0.74683212  0.18618318  0.76040432     0.06400
C574        C  0.74898228  0.19193308  0.77581277     0.04500
H575        H  0.72864924  0.14730517  0.74912986     0.09600
H576        H  0.75840036  0.21027436  0.78120259     0.08400
N577        N  0.60067468  0.32802303  0.96726107    -0.26000
N578        N  0.60117166  0.31037239  0.95432879    -0.33800
C579        C  0.61671459  0.29114032  0.95356720     0.02400
C580        C  0.62685300  0.29689169  0.96657761     0.08400
C581        C  0.61614374  0.32010631  0.97517444    -0.04700
H582        H  0.62068537  0.27536776  0.94384765     0.09100
H583        H  0.61983694  0.33194185  0.98591319     0.10300
Cu584      Cu  0.58312040  0.31729663  0.93661097     0.44200
Cu585      Cu  0.57943636  0.36455172  0.97185984     0.42000
Cu586      Cu  0.54873531  0.38324902  0.93877569     0.43900
N587        N  0.56891042  0.33449456  0.91781361    -0.33400
N588        N  0.55592549  0.35909462  0.91840800    -0.27600
C589        C  0.55070846  0.36719016  0.90415905    -0.03700
C590        C  0.56122772  0.34709915  0.89417650     0.08500
C591        C  0.57254849  0.32654114  0.90327700     0.02300
H592        H  0.54089677  0.38778575  0.90125162     0.09900
H593        H  0.58321470  0.30822278  0.89965108     0.09000
N594        N  0.54568264  0.40528439  0.96026094    -0.34800
N595        N  0.55644635  0.39876236  0.97207055    -0.27000
C596        C  0.55002151  0.41738326  0.98402917    -0.02200
C597        C  0.53452477  0.43650200  0.97953146     0.06400
C598        C  0.53230506  0.42821433  0.96440794     0.04500
H599        H  0.55623161  0.41688430  0.99516068     0.09600
H600        H  0.52154925  0.43786234  0.95694573     0.08400
N601        N  0.45625720  0.10247919  0.04131024    -0.26000
N602        N  0.45742142  0.11875708  0.05452549    -0.33800
C603        C  0.44142486  0.13514579  0.05760376     0.02400
C604        C  0.42939811  0.12933439  0.04582013     0.08400
C605        C  0.43921493  0.10852697  0.03552137    -0.04700
H606        H  0.43840728  0.14876421  0.06813068     0.09100
H607        H  0.43404506  0.09699130  0.02514216     0.10300
Cu608      Cu  0.47883661  0.11304269  0.06957995     0.44200
Cu609      Cu  0.47794787  0.06995713  0.03380353     0.42000
Cu610      Cu  0.51382386  0.04962911  0.06343219     0.43900
N611        N  0.49561108  0.09511980  0.08672658    -0.33400
N612        N  0.50862392  0.07096009  0.08476336    -0.27600
C613        C  0.51481866  0.06051690  0.09847193    -0.03700
C614        C  0.50489859  0.07862428  0.10951888     0.08500
C615        C  0.49297518  0.10053828  0.10159636     0.02300
H616        H  0.52455976  0.03911410  0.10028390     0.09900
H617        H  0.48221460  0.11732544  0.10624477     0.09000
N618        N  0.51417959  0.03140621  0.04115349    -0.34800
N619        N  0.50169299  0.03878654  0.03063649    -0.27000
C620        C  0.50661735  0.02238794  0.01767006    -0.02200
C621        C  0.52287503  0.00373232  0.02015443     0.06400
C622        C  0.52718512  0.00999469  0.03514602     0.04500
H623        H  0.49874045  0.02363641  0.00729367     0.09600
H624        H  0.53896443  0.99976575  0.04126276     0.08400
N625        N  0.35402182  0.18937716  0.03354587    -0.26000
N626        N  0.35434009  0.17864333  0.04781725    -0.33800
C627        C  0.36941116  0.15854536  0.05005006     0.02400
C628        C  0.37929849  0.15653143  0.03656714     0.08400
C629        C  0.36897322  0.17606040  0.02627220    -0.04700
H630        H  0.37334270  0.14787754  0.06096183     0.09100
H631        H  0.37275373  0.18226418  0.01468079     0.10300
Cu632      Cu  0.33646202  0.19657634  0.06457181     0.44200
Cu633      Cu  0.33433255  0.22560346  0.02579883     0.42000
Cu634      Cu  0.30695683  0.26979549  0.05598933     0.43900
N635        N  0.32196400  0.22430847  0.08105267    -0.33400
N636        N  0.31192585  0.25280484  0.07808465    -0.27600
C637        C  0.30646190  0.26753173  0.09128982    -0.03700
C638        C  0.31327988  0.24694763  0.10308116     0.08500
C639        C  0.32289419  0.21970158  0.09615165     0.02300
H640        H  0.29841650  0.29166636  0.09223244     0.09900
H641        H  0.33092312  0.19923518  0.10169303     0.09000
N642        N  0.30332326  0.27790745  0.03281910    -0.34800
N643        N  0.31309919  0.26217263  0.02200852    -0.27000
C644        C  0.30669626  0.27288812  0.00843684    -0.02200
C645        C  0.29218184  0.29625792  0.01076532     0.06400
C646        C  0.29045269  0.29884870  0.02637817     0.04500
H647        H  0.31207042  0.26394043  0.99762859     0.09600
H648        H  0.28052488  0.31452495  0.03267396     0.08400
N649        N  0.18435956  0.43275642  0.96473577    -0.26000
N650        N  0.18051871  0.42977918  0.95017106    -0.33800
C651        C  0.16035968  0.97186243  0.95618253     0.02400
C652        C  0.15581884  0.99369415  0.96824349     0.08400
C653        C  0.17053052  0.98969542  0.97831984    -0.04700
H654        H  0.15304289  0.96893734  0.94560027     0.09100
H655        H  0.17229569  0.00335173  0.98899454     0.10300
Cu656      Cu  0.19746817  0.40605770  0.93431753     0.44200
Cu657      Cu  0.20840438  0.40983328  0.97376500     0.42000
Cu658      Cu  0.24213946  0.37772673  0.94436661     0.43900
N659        N  0.21676016  0.39013448  0.91846814    -0.33400
N660        N  0.23388676  0.38117238  0.92191533    -0.27600
C661        C  0.24305136  0.37276569  0.90904995    -0.03700
C662        C  0.23088189  0.37650268  0.89704115     0.08500
C663        C  0.21439147  0.38732740  0.90345326     0.02300
H664        H  0.25712033  0.36303126  0.90857214     0.09900
H665        H  0.20150222  0.39235123  0.89764529     0.09000
N666        N  0.24473440  0.37049992  0.96761758    -0.34800
N667        N  0.23293859  0.38170753  0.97812662    -0.27000
C668        C  0.23898140  0.37067059  0.99178625    -0.02200
C669        C  0.25519124  0.35155798  0.98978422     0.06400
C670        C  0.25839878  0.35206706  0.97430292     0.04500
H671        H  0.23191851  0.37569114  0.00241191     0.09600
H672        H  0.26969792  0.33969381  0.96821319     0.08400
N673        N  0.94316025  0.35037284  0.02484812    -0.26000
N674        N  0.94069846  0.35879065  0.03923914    -0.33800
C675        C  0.92477315  0.37646787  0.04092170     0.02400
C676        C  0.91647896  0.37962299  0.02690545     0.08400
C677        C  0.92862404  0.36304674  0.01686659    -0.04700
H678        H  0.91977580  0.38658018  0.05165340     0.09100
H679        H  0.92686886  0.35997369  0.00476488     0.10300
Cu680      Cu  0.95852348  0.34625332  0.05643337     0.44200
Cu681      Cu  0.96652781  0.32111025  0.01815685     0.42000
Cu682      Cu  0.99928730  0.29885471  0.05041417     0.43900
N683        N  0.97547180  0.33181322  0.07395467    -0.33400
N684        N  0.99107840  0.31416134  0.07210704    -0.27600
C685        C  0.99791337  0.30592375  0.08591213    -0.03700
C686        C  0.98574452  0.31903225  0.09680098     0.08500
C687        C  0.97176589  0.33513703  0.08876417     0.02300
H688        H  0.00994889  0.28947815  0.08783333     0.09900
H689        H  0.95921810  0.34666482  0.09333591     0.09000
N690        N  0.00246105  0.28405269  0.02776676    -0.34800
N691        N  0.99116631  0.29167157  0.01639221    -0.27000
C692        C  0.99803595  0.27697759  0.00360542    -0.02200
C693        C  0.01433478  0.25933030  0.00711948     0.06400
C694        C  0.01659542  0.26433963  0.02248950     0.04500
H695        H  0.99148629  0.27872618  0.99263077     0.09600
H696        H  0.02774280  0.25427490  0.02939281     0.08400
N697        N  0.09121227  0.08743306  0.95716189    -0.26000
N698        N  0.08824799  0.06986899  0.94442569    -0.33800
C699        C  0.09955086  0.04166381  0.94384534     0.02400
C700        C  0.11048509  0.04133896  0.95663781     0.08400
C701        C  0.10483770  0.07082969  0.96493986    -0.04700
H702        H  0.10052137  0.02372127  0.93430011     0.09100
H703        H  0.11045153  0.07997724  0.97559469     0.10300
Cu704      Cu  0.07196163  0.08772342  0.92661954     0.44200
Cu705      Cu  0.07642581  0.13376266  0.96233383     0.42000
Cu706      Cu  0.05330634  0.17465672  0.92933969     0.43900
N707        N  0.06249017  0.11561691  0.90784968    -0.33400
N708        N  0.05663887  0.14880946  0.90868171    -0.27600
C709        C  0.05383479  0.16125351  0.89453768    -0.03700
C710        C  0.05802679  0.13437597  0.88432346     0.08500
C711        C  0.06334369  0.10583546  0.89319380     0.02300
H712        H  0.04928813  0.18793655  0.89191428     0.09900
H713        H  0.06837591  0.08040075  0.88924149     0.09000
N714        N  0.04949592  0.19073095  0.95170347    -0.34800
N715        N  0.05773754  0.17624018  0.96358670    -0.27000
C716        C  0.05094521  0.19135052  0.97629345    -0.02200
C717        C  0.03775924  0.21640443  0.97220423     0.06400
C718        C  0.03729252  0.21525536  0.95655343     0.04500
H719        H  0.05483557  0.18356987  0.98764679     0.09600
H720        H  0.02825304  0.23029279  0.94923009     0.08400
N721        N  0.84794832  0.46383640  0.02887192    -0.26000
N722        N  0.84420977  0.45119428  0.04255271    -0.33800
C723        C  0.85660399  0.42605119  0.04606537     0.02400
C724        C  0.86886160  0.42244699  0.03413593     0.08400
C725        C  0.86297750  0.44677550  0.02332223    -0.04700
H726        H  0.85744379  0.41310749  0.05701765     0.09100
H727        H  0.86974106  0.45319457  0.01269447     0.10300
Cu728      Cu  0.82541795  0.47292179  0.05766617     0.44200
Cu729      Cu  0.83338223  0.50669506  0.01969080     0.42000
Cu730      Cu  0.81259535  0.05579539  0.06066557     0.43900
N731        N  0.81362544  0.50604132  0.07367932    -0.33400
N732        N  0.81610100  0.04154249  0.08327137    -0.27600
C733        C  0.80984564  0.05775505  0.09590457    -0.03700
C734        C  0.81503429  0.03744394  0.10832572     0.08500
C735        C  0.81324677  0.50140699  0.08879384     0.02300
H736        H  0.80197721  0.08219537  0.09600968     0.09900
H737        H  0.81830370  0.47796450  0.09455342     0.09000
N738        N  0.80880118  0.05897765  0.03731509    -0.34800
N739        N  0.81793183  0.03985960  0.02714305    -0.27000
C740        C  0.81116409  0.04725223  0.01329215    -0.02200
C741        C  0.79715062  0.07208910  0.01476616     0.06400
C742        C  0.79605295  0.07893554  0.03017829     0.04500
H743        H  0.81590148  0.03497603  0.00289460     0.09600
H744        H  0.78646358  0.09646947  0.03590137     0.08400
N745        N  0.69983856  0.22706331  0.96412210    -0.26000
N746        N  0.70081670  0.23438236  0.94947705    -0.33800
C747        C  0.68647213  0.25489733  0.94558549     0.02400
C748        C  0.67572318  0.26091766  0.95826820     0.08400
C749        C  0.68459909  0.24296890  0.96994855    -0.04700
H750        H  0.68329476  0.26260300  0.93404825     0.09100
H751        H  0.67973858  0.23972990  0.98148893     0.10300
Cu752      Cu  0.71853519  0.21025239  0.93425303     0.44200
Cu753      Cu  0.71852856  0.19188671  0.97415837     0.42000
Cu754      Cu  0.74305762  0.13429732  0.94616564     0.43900
N755        N  0.73021422  0.17510294  0.91905546    -0.33400
N756        N  0.73834857  0.14532871  0.92331109    -0.27600
C757        C  0.74238516  0.12606304  0.91084417    -0.03700
C758        C  0.73671825  0.14503354  0.89818405     0.08500
C759        C  0.72902830  0.17595455  0.90386265     0.02300
H760        H  0.74879310  0.10009448  0.91097767     0.09900
H761        H  0.72220345  0.19673042  0.89750392     0.09000
N762        N  0.74798509  0.13485148  0.96947755    -0.34800
N763        N  0.73942975  0.15551216  0.97944159    -0.27000
C764        C  0.74675969  0.14975938  0.99324653    -0.02200
C765        C  0.76054840  0.12440823  0.99196637     0.06400
C766        C  0.76091625  0.11555529  0.97671867     0.04500
H767        H  0.74247020  0.16331972  0.00348207     0.09600
H768        H  0.77001239  0.09678809  0.97117125     0.08400
C769        C  0.78564635  0.08638453  0.00229201    -0.15100
C770        C  0.77220014  0.11063850  0.00446891    -0.30300
H771        H  0.78838794  0.07633967  0.99097945     0.13900
H772        H  0.76952773  0.12086213  0.01576284     0.14500
C773        C  0.89857051  0.39747678  0.02377281    -0.15100
C774        C  0.88609478  0.40149897  0.03502906    -0.30300
H775        H  0.89579810  0.40762707  0.01247619     0.13900
H776        H  0.88875841  0.38923446  0.04596181     0.14500
C777        C  0.02686354  0.23849157  0.99720045    -0.15100
C778        C  0.02540250  0.23796149  0.98201592    -0.30300
H779        H  0.03775049  0.22349024  0.00266990     0.13900
H780        H  0.01483293  0.25373557  0.97651483     0.14500
C781        C  0.13966367  0.01844668  0.96904335    -0.15100
C782        C  0.12572322  0.01556625  0.95897433    -0.30300
H783        H  0.13966926  0.03975069  0.97731364     0.13900
H784        H  0.12584974  0.99366211  0.95101496     0.14500
C785        C  0.26622819  0.33417140  0.00182659    -0.15100
C786        C  0.28110710  0.31378199  0.99879814    -0.30300
H787        H  0.26179419  0.33812002  0.01347487     0.13900
H788        H  0.28533205  0.30929723  0.98713912     0.14500
C789        C  0.40975171  0.13999247  0.04637752    -0.15100
C790        C  0.39832684  0.14232821  0.03443977    -0.30300
H791        H  0.40483340  0.14865648  0.05741935     0.13900
H792        H  0.40334286  0.13645109  0.02309452     0.14500
C793        C  0.64593573  0.28392587  0.96942873    -0.15100
C794        C  0.65716273  0.27716822  0.95756236    -0.30300
H795        H  0.65069739  0.28018064  0.98098480     0.13900
H796        H  0.65238436  0.28354385  0.94621006     0.14500
C797        C  0.52238597  0.46027067  0.98860050    -0.15100
C798        C  0.52388625  0.46284244  0.00371961    -0.30300
H799        H  0.51174332  0.47525735  0.98271819     0.13900
H800        H  0.53427832  0.44711474  0.00954563     0.14500
C801        C  0.73657906  0.15655179  0.87061042    -0.15100
C802        C  0.73708631  0.13321140  0.88218756    -0.30300
H803        H  0.73717708  0.18485838  0.87291428     0.13900
H804        H  0.73786018  0.10490956  0.87991612     0.14500
C805        C  0.77127961  0.22496603  0.74918683    -0.15100
C806        C  0.75698525  0.20235670  0.74748248    -0.30300
H807        H  0.77563791  0.23268314  0.76045691     0.13900
H808        H  0.75274391  0.19445203  0.73620995     0.14500
C809        C  0.05826223  0.13557868  0.86752869    -0.15100
C810        C  0.06022311  0.16614722  0.85978722    -0.30300
H811        H  0.05838123  0.11048509  0.86146661     0.13900
H812        H  0.06165523  0.19096755  0.86592851     0.14500
C813        C  0.89143226  0.40800429  0.70861611    -0.15100
C814        C  0.87865462  0.40446372  0.69765906    -0.30300
H815        H  0.88958667  0.39475575  0.71945807     0.13900
H816        H  0.88051554  0.41831990  0.68698508     0.14500
C817        C  0.02755555  0.05274767  0.74378856    -0.15100
C818        C  0.04262934  0.07250938  0.74069605    -0.30300
H819        H  0.02271315  0.05020478  0.75540796     0.13900
H820        H  0.04755458  0.07497974  0.72909351     0.14500
C821        C  0.57721603  0.34209701  0.86962253    -0.15100
C822        C  0.56181282  0.35032592  0.87745510    -0.30300
H823        H  0.58949080  0.33349760  0.87564683     0.13900
H824        H  0.54997486  0.36168132  0.87167056     0.14500
C825        C  0.64517296  0.99896949  0.78311472    -0.15100
C826        C  0.65532662  0.00782178  0.79528193    -0.30300
H827        H  0.64999052  0.00552030  0.77177369     0.13900
H828        H  0.65085452  0.99902045  0.80644194     0.14500
C829        C  0.51593691  0.30209337  0.75397532    -0.15100
C830        C  0.53191688  0.31872464  0.75043333    -0.30300
H831        H  0.51155507  0.30015715  0.76573386     0.13900
H832        H  0.53623805  0.32086453  0.73866516     0.14500
C833        C  0.37102301  0.16570276  0.71173230    -0.15100
C834        C  0.38441213  0.16391420  0.72224258    -0.30300
H835        H  0.37330421  0.18214292  0.70175206     0.13900
H836        H  0.38225673  0.14937118  0.73274954     0.14500
C837        C  0.24961695  0.36810786  0.87358538    -0.15100
C838        C  0.23333903  0.36694222  0.88099449    -0.30300
H839        H  0.26195197  0.37789421  0.87918721     0.13900
H840        H  0.22083726  0.36031017  0.87482073     0.14500
C841        C  0.16400649  0.26374764  0.79072322    -0.15100
C842        C  0.15520881  0.25470500  0.77791931    -0.30300
H843        H  0.15748484  0.25820252  0.80158446     0.13900
H844        H  0.16204165  0.25741596  0.76699024     0.14500
C845        C  0.28162284  0.43911312  0.75520858    -0.15100
C846        C  0.27713412  0.44122063  0.74047279    -0.30300
H847        H  0.29273566  0.45537647  0.75962586     0.13900
H848        H  0.26620010  0.42459283  0.73601437     0.14500
C849        C  0.28388536  0.04027843  0.61937012    -0.15100
C850        C  0.29606258  0.05543143  0.62880249    -0.30300
H851        H  0.26999855  0.03380417  0.62324862     0.13900
H852        H  0.30924611  0.06481432  0.62435839     0.14500
C853        C  0.26468014  0.07329030  0.49587137    -0.15100
C854        C  0.24971140  0.09412751  0.49773536    -0.30300
H855        H  0.27049248  0.06947834  0.48461685     0.13900
H856        H  0.24430230  0.09893266  0.50904811     0.14500
C857        C  0.46491568  0.24163572  0.62452441    -0.15100
C858        C  0.47903609  0.24636695  0.63417927    -0.30300
H859        H  0.45140747  0.23417568  0.62888569     0.13900
H860        H  0.49237724  0.25552389  0.63000911     0.14500
C861        C  0.38368854  0.35988207  0.54258704    -0.15100
C862        C  0.37943363  0.38540050  0.53249464    -0.30300
H863        H  0.37404100  0.35384183  0.55168947     0.13900
H864        H  0.38866191  0.39112620  0.52305603     0.14500
C865        C  0.53424083  0.22946524  0.50972194    -0.15100
C866        C  0.52060556  0.25289906  0.50699198    -0.30300
H867        H  0.53709394  0.22099234  0.52122966     0.13900
H868        H  0.51755461  0.26090266  0.49546209     0.14500
C869        C  0.63811641  0.00280785  0.45731761    -0.15100
C870        C  0.63362014  0.02667834  0.46801296    -0.30300
H871        H  0.62904562  0.99905547  0.44769257     0.13900
H872        H  0.64250129  0.03041694  0.47776891     0.14500
C873        C  0.78770064  0.29144344  0.61467219    -0.15100
C874        C  0.78780441  0.26707304  0.62584824    -0.30300
H875        H  0.78776792  0.31956177  0.61742862     0.13900
H876        H  0.78650695  0.23903096  0.62317641     0.14500
C877        C  0.77472996  0.34946585  0.49192060    -0.15100
C878        C  0.76193399  0.37505706  0.49406457    -0.30300
H879        H  0.77847727  0.34149719  0.48049424     0.13900
H880        H  0.75831085  0.38311145  0.50550003     0.14500
C881        C  0.96855477  0.01508963  0.61697721    -0.15100
C882        C  0.98459238  0.00952646  0.62426889    -0.30300
H883        H  0.95566538  0.01491455  0.62337194     0.13900
H884        H  0.99773365  0.01261815  0.61838793     0.14500
C885        C  0.88375103  0.14064389  0.53177663    -0.15100
C886        C  0.87068257  0.14549946  0.54246465    -0.30300
H887        H  0.88254860  0.15349925  0.52079705     0.13900
H888        H  0.87179987  0.13149672  0.55318145     0.14500
C889        C  0.13703399  0.29855929  0.44530205    -0.15100
C890        C  0.14799694  0.29160438  0.45720326    -0.30300
H891        H  0.14072415  0.28830141  0.43419672     0.13900
H892        H  0.14399548  0.29993676  0.46852828     0.14500
C893        C  0.03466885  0.48707729  0.49661635    -0.15100
C894        C  0.02064667  0.50999808  0.49433503    -0.30300
H895        H  0.03838813  0.47917986  0.50803476     0.13900
H896        H  0.01676321  0.51740666  0.48290127     0.14500
C897        C  0.73722234  0.43328801  0.37193228    -0.15100
C898        C  0.74026667  0.40083406  0.36615854    -0.30300
H899        H  0.73523214  0.45570104  0.36433045     0.13900
H900        H  0.74073060  0.37794812  0.37366846     0.14500
C901        C  0.81179626  0.04410860  0.12460899    -0.15100
C902        C  0.80937227  0.07692613  0.13017986    -0.30300
H903        H  0.81050749  0.57017179  0.11446000     0.13900
H904        H  0.80985432  0.09971909  0.12261053     0.14500
C905        C  0.77986285  0.48468828  0.24548942    -0.15100
C906        C  0.76643561  0.46038514  0.24350146    -0.30300
H907        H  0.78548514  0.00911465  0.26248740     0.13900
H908        H  0.76279334  0.45203086  0.23213457     0.14500
C909        C  0.99915701  0.30327188  0.12200620    -0.15100
C910        C  0.98473329  0.31203182  0.11321334    -0.30300
H911        H  0.01310596  0.30272583  0.11738782     0.13900
H912        H  0.97116121  0.31523472  0.11837690     0.14500
C913        C  0.90014625  0.20532838  0.20100568    -0.15100
C914        C  0.89206990  0.18945283  0.21300109    -0.30300
H915        H  0.89297007  0.20592192  0.19025565     0.13900
H916        H  0.89932909  0.18757369  0.22371377     0.14500
C917        C  0.05020652  0.42878253  0.36256587    -0.15100
C918        C  0.05194604  0.45151511  0.37416424    -0.30300
H919        H  0.04796878  0.40071635  0.36478159     0.13900
H920        H  0.05287595  0.47988204  0.37203976     0.14500
C921        C  0.04270170  0.35837762  0.24234506    -0.15100
C922        C  0.02737392  0.33849729  0.24440594    -0.30300
H923        H  0.04893992  0.36051285  0.23115856     0.13900
H924        H  0.02118570  0.33636930  0.25560335     0.14500
C925        C  0.22822567  0.17634796  0.36439626    -0.15100
C926        C  0.22742829  0.15152199  0.37535549    -0.30300
H927        H  0.22967627  0.20420959  0.36736804     0.13900
H928        H  0.22748065  0.12351122  0.37239922     0.14500
C929        C  0.14758741  0.04568172  0.27997193    -0.15100
C930        C  0.13648439  0.03746283  0.29173739    -0.30300
H931        H  0.14346495  0.03940605  0.26847622     0.13900
H932        H  0.14035893  0.04570062  0.30305561     0.14500
C933        C  0.31283912  0.28676478  0.12521833    -0.15100
C934        C  0.31245097  0.25367767  0.11957923    -0.30300
H935        H  0.31354879  0.30928910  0.11750903     0.13900
H936        H  0.31357645  0.23107124  0.12719693     0.14500
C937        C  0.27717440  0.24421946  0.24635246    -0.15100
C938        C  0.26378622  0.22035557  0.24351365    -0.30300
H939        H  0.27946888  0.25326331  0.25785013     0.13900
H940        H  0.26131649  0.21168706  0.23198633     0.14500
C941        C  0.48852999  0.07466693  0.13382436    -0.15100
C942        C  0.50437699  0.07083289  0.12597515    -0.30300
H943        H  0.47610603  0.08318552  0.12797275     0.13900
H944        H  0.51645052  0.05921296  0.13133786     0.14500
C945        C  0.39918812  0.43986424  0.20071076    -0.15100
C946        C  0.38640768  0.43356268  0.21147798    -0.30300
H947        H  0.39760127  0.42773562  0.18963104     0.13900
H948        H  0.38830996  0.44358368  0.22290329     0.14500
C949        C  0.55164398  0.15130895  0.37754727    -0.15100
C950        C  0.55484133  0.17485772  0.38864138    -0.30300
H951        H  0.54716738  0.12450072  0.38032648     0.13900
H952        H  0.55795415  0.20234880  0.38584160     0.14500
C953        C  0.65236751  0.25919123  0.30085548    -0.15100
C954        C  0.66033770  0.27148524  0.28806527    -0.30300
H955        H  0.65887291  0.26421949  0.31169946     0.13900
H956        H  0.65339046  0.26846954  0.27725422     0.14500
C957        C  0.53718368  0.09548663  0.25475734    -0.15100
C958        C  0.52217308  0.07460417  0.25638264    -0.30300
H959        H  0.54265208  0.10103796  0.24351778     0.13900
H960        H  0.51674001  0.06898074  0.26762752     0.14500
N961        N  0.58817442  0.78032708  0.28133126    -0.26000
N962        N  0.58897864  0.79164628  0.29548649    -0.33800
C963        C  0.60464534  0.81019519  0.29741635     0.02400
C964        C  0.61432404  0.81071659  0.28382211     0.08400
C965        C  0.60336040  0.79181420  0.27380416    -0.04700
H966        H  0.60897784  0.82123557  0.30814246     0.09100
H967        H  0.60669426  0.78514747  0.26218359     0.10300
Cu968      Cu  0.57054471  0.77696170  0.31238532     0.44200
Cu969      Cu  0.56721887  0.74645269  0.27396278     0.42000
Cu970      Cu  0.53868256  0.70652081  0.30408770     0.43900
N971        N  0.55605471  0.74947688  0.32892360    -0.33400
N972        N  0.54528232  0.72198437  0.32597960    -0.27600
C973        C  0.54083534  0.70573353  0.33910768    -0.03700
C974        C  0.54896172  0.72428720  0.35084373     0.08500
C975        C  0.55848208  0.75189047  0.34398213     0.02300
H976        H  0.53298654  0.68132272  0.33998473     0.09900
H977        H  0.56781862  0.77038024  0.34938540     0.09000
N978        N  0.53445859  0.69835704  0.28108859    -0.34800
N979        N  0.54477931  0.71269324  0.27024512    -0.27000
C980        C  0.53826518  0.70214706  0.25672350    -0.02200
C981        C  0.52315267  0.68024421  0.25912386     0.06400
C982        C  0.52111594  0.67840916  0.27472889     0.04500
H983        H  0.54412920  0.70985351  0.24589409     0.09600
H984        H  0.51078908  0.66370903  0.28105056     0.08400
N985        N  0.43996396  0.99247351  0.21446857    -0.26000
N986        N  0.43554760  0.00273679  0.20062451    -0.33800
C987        C  0.41921099  0.98871431  0.19680400     0.02400
C988        C  0.41289308  0.96817276  0.20867757     0.08400
C989        C  0.42638234  0.97101129  0.21981652    -0.04700
H990        H  0.41276439  0.99197997  0.18583897     0.09100
H991        H  0.42646660  0.95816128  0.23080200     0.10300
Cu992      Cu  0.45268905  0.03094095  0.18637594     0.44200
Cu993      Cu  0.46485817  0.00910992  0.22416493     0.42000
Cu994      Cu  0.48084573  0.59063538  0.19218407     0.43900
N995        N  0.47211780  0.04863224  0.17104431    -0.33400
N996        N  0.48281198  0.57097462  0.17040458    -0.27600
C997        C  0.48896496  0.58702160  0.15771447    -0.03700
C998        C  0.48697652  0.56358735  0.14578188     0.08500
C999        C  0.46941877  0.05495710  0.15626809     0.02300
H1000       H  0.49398016  0.61408274  0.15713962     0.09900
H1001       H  0.45623118  0.05261334  0.15059870     0.09000
N1002       N  0.47994944  0.60148487  0.21512516    -0.34800
N1003       N  0.46929761  0.58535397  0.22526891    -0.27000
C1004       C  0.47367243  0.59777827  0.23914203    -0.02200
C1005       C  0.48777015  0.62259782  0.23759779     0.06400
C1006       C  0.49129913  0.62422726  0.22218485     0.04500
H1007       H  0.46751926  0.58851144  0.24964128     0.09600
H1008       H  0.50175013  0.63981918  0.21641511     0.08400
N1009       N  0.35622561  0.84997211  0.21418721    -0.26000
N1010       N  0.35345691  0.86755971  0.20140411    -0.33800
C1011       C  0.36494734  0.89550511  0.20078939     0.02400
C1012       C  0.37568978  0.89574185  0.21377721     0.08400
C1013       C  0.36975309  0.86640229  0.22202191    -0.04700
H1014       H  0.36599182  0.91300653  0.19109344     0.09100
H1015       H  0.37526350  0.85706704  0.23269254     0.10300
Cu1016     Cu  0.33684383  0.85065199  0.18373804     0.44200
Cu1017     Cu  0.34168645  0.80374958  0.21972704     0.42000
Cu1018     Cu  0.31680510  0.76510370  0.18769315     0.43900
N1019       N  0.32595003  0.82314012  0.16551123    -0.33400
N1020       N  0.31953045  0.79040482  0.16681582    -0.27600
C1021       C  0.31568125  0.77780494  0.15290566    -0.03700
C1022       C  0.31976398  0.80408696  0.14235273     0.08500
C1023       C  0.32612357  0.83250797  0.15077156     0.02300
H1024       H  0.31047078  0.75140335  0.15065610     0.09900
H1025       H  0.33137879  0.85748562  0.14643992     0.09000
N1026       N  0.31381416  0.74826231  0.21005554    -0.34800
N1027       N  0.32281142  0.76193900  0.22170525    -0.27000
C1028       C  0.31650982  0.74664645  0.23457462    -0.02200
C1029       C  0.30283719  0.72229430  0.23080969     0.06400
C1030       C  0.30159975  0.72405588  0.21519804     0.04500
H1031       H  0.32109231  0.75377515  0.24581783     0.09600
H1032       H  0.29202403  0.70966912  0.20811798     0.08400
N1033       N  0.20851748  0.58690034  0.28304203    -0.26000
N1034       N  0.20485433  0.58061629  0.29748056    -0.33800
C1035       C  0.18865830  0.56362287  0.29878929     0.02400
C1036       C  0.18140929  0.55877667  0.28446698     0.08400
C1037       C  0.19449525  0.57354395  0.27466847    -0.04700
H1038       H  0.18259839  0.55574235  0.30951229     0.09100
H1039       H  0.19357382  0.57546650  0.26245813     0.10300
Cu1040     Cu  0.22090866  0.59694979  0.31525535     0.44200
Cu1041     Cu  0.23227232  0.61577213  0.27675887     0.42000
Cu1042     Cu  0.26115442  0.64763348  0.30961276     0.43900
N1043       N  0.23594275  0.61697340  0.33293900    -0.33400
N1044       N  0.25121749  0.63576512  0.33119606    -0.27600
C1045       C  0.25689649  0.64691799  0.34494445    -0.03700
C1046       C  0.24429406  0.63486903  0.35569958     0.08500
C1047       C  0.23130254  0.61580344  0.34764331     0.02300
H1048       H  0.26863403  0.66415312  0.34685988     0.09900
H1049       H  0.21901284  0.60291888  0.35203524     0.09000
N1050       N  0.26634014  0.65820298  0.28680125    -0.34800
N1051       N  0.25634916  0.64709387  0.27515481    -0.27000
C1052       C  0.26391435  0.66013016  0.26227996    -0.02200
C1053       C  0.27930609  0.68038068  0.26601520     0.06400
C1054       C  0.28033518  0.67850710  0.28161730     0.04500
H1055       H  0.25838276  0.65559382  0.25108122     0.09600
H1056       H  0.29044997  0.69132885  0.28874180     0.08400
N1057       N  0.09499692  0.98433558  0.28405352    -0.26000
N1058       N  0.10433958  0.50293350  0.29725744    -0.33800
C1059       C  0.11822945  0.52449187  0.30126845     0.02400
C1060       C  0.13158515  0.52393466  0.29006240     0.08400
C1061       C  0.12479760  0.50084726  0.27913593    -0.04700
H1062       H  0.11898702  0.53826147  0.31201460     0.09100
H1063       H  0.13173466  0.49243014  0.26885166     0.10300
Cu1064     Cu  0.07264646  0.97341948  0.31285984     0.44200
Cu1065     Cu  0.07681301  0.94950356  0.27315052     0.42000
Cu1066     Cu  0.04645901  0.90071030  0.29969404     0.43900
N1067       N  0.05660417  0.94273199  0.32717669    -0.33400
N1068       N  0.04779077  0.91414388  0.32243117    -0.27600
C1069       C  0.04098341  0.89650783  0.33450565    -0.03700
C1070       C  0.04549111  0.91529913  0.34742317     0.08500
C1071       C  0.05543150  0.94447772  0.34237341     0.02300
H1072       H  0.03383429  0.87129562  0.33396019     0.09900
H1073       H  0.06248883  0.96396770  0.34926542     0.09000
N1074       N  0.04512922  0.89671253  0.27627782    -0.34800
N1075       N  0.05588947  0.91420682  0.26662893    -0.27000
C1076       C  0.05064452  0.90611495  0.25240417    -0.02200
C1077       C  0.03589736  0.88261185  0.25313912     0.06400
C1078       C  0.03281530  0.87724596  0.26848199     0.04500
H1079       H  0.05698571  0.91684238  0.24224073     0.09600
H1080       H  0.02233241  0.86070603  0.27370302     0.08400
N1081       N  0.94747605  0.71477613  0.20002036    -0.26000
N1082       N  0.95216770  0.69999182  0.18697050    -0.33800
C1083       C  0.93904109  0.67681928  0.18285855     0.02400
C1084       C  0.92535851  0.67662450  0.19379057     0.08400
C1085       C  0.93111184  0.70097839  0.20461207    -0.04700
H1086       H  0.93904580  0.66232913  0.17226931     0.09100
H1087       H  0.92362225  0.70925493  0.21465438     0.10300
Cu1088     Cu  0.97426569  0.71550288  0.17363018     0.44200
Cu1089     Cu  0.96330713  0.75520339  0.20972151     0.42000
Cu1090     Cu  0.99532180  0.79808620  0.18286226     0.43900
N1091       N  0.99027130  0.74379627  0.15842355    -0.33400
N1092       N  0.99692773  0.77569387  0.16141298    -0.27600
C1093       C  0.00363516  0.79000888  0.14851625    -0.03700
C1094       C  0.00112021  0.76568705  0.13690790     0.08500
C1095       C  0.99275710  0.73666005  0.14363705     0.02300
H1096       H  0.00925483  0.81656826  0.14758872     0.09900
H1097       H  0.98746428  0.71332860  0.13796937     0.09000
N1098       N  0.99419137  0.80935584  0.20588582    -0.34800
N1099       N  0.98281836  0.79375124  0.21565019    -0.27000
C1100       C  0.98692903  0.80503075  0.22972078    -0.02200
C1101       C  0.00157884  0.82869012  0.22879370     0.06400
C1102       C  0.00578114  0.83084997  0.21347726     0.04500
H1103       H  0.98015400  0.79575831  0.23995708     0.09600
H1104       H  0.01685191  0.84581851  0.20821263     0.08400
N1105       N  0.85291167  0.59967056  0.20481796    -0.26000
N1106       N  0.85510178  0.60363085  0.19002893    -0.33800
C1107       C  0.87015000  0.62358457  0.18732017     0.02400
C1108       C  0.87795604  0.63278314  0.20108012     0.08400
C1109       C  0.86655856  0.61739877  0.21195095    -0.04700
H1110       H  0.87508576  0.63042761  0.17609041     0.09100
H1111       H  0.86840677  0.61805000  0.22411126     0.10300
Cu1112     Cu  0.83845109  0.58011763  0.17393751     0.44200
Cu1113     Cu  0.83202685  0.56790977  0.21403060     0.42000
Cu1114     Cu  0.80549867  0.51509523  0.18646318     0.43900
N1115       N  0.82228648  0.55096039  0.15926275    -0.33400
N1116       N  0.81077201  0.52568407  0.16371262    -0.27600
C1117       C  0.80337602  0.51024213  0.15137738    -0.03700
C1118       C  0.81033861  0.52719556  0.13863232     0.08500
C1119       C  0.82232174  0.55277689  0.14405620     0.02300
H1120       H  0.79360700  0.48845421  0.15166810     0.09900
H1121       H  0.83093059  0.57058386  0.13745191     0.09000
N1122       N  0.80135110  0.51362934  0.20981056    -0.34800
N1123       N  0.81074330  0.53277239  0.21972788    -0.27000
C1124       C  0.80438164  0.52540756  0.23376186    -0.02200
C1125       C  0.79034721  0.50053663  0.23266703     0.06400
C1126       C  0.78879647  0.49371168  0.21728331     0.04500
H1127       H  0.80967427  0.53718016  0.24405346     0.09600
H1128       H  0.77933304  0.47556116  0.21183065     0.08400
N1129       N  0.69012765  0.86976543  0.28637477    -0.26000
N1130       N  0.69270918  0.85270794  0.29929978    -0.33800
C1131       C  0.67750395  0.83404081  0.30282067     0.02400
C1132       C  0.66457502  0.83913802  0.29161268     0.08400
C1133       C  0.67299618  0.86192961  0.28122708    -0.04700
H1134       H  0.67561397  0.81932879  0.31327710     0.09100
H1135       H  0.66678330  0.87357078  0.27124484     0.10300
Cu1136     Cu  0.71502971  0.85993760  0.31335519     0.44200
Cu1137     Cu  0.71006737  0.90543053  0.27815550     0.42000
Cu1138     Cu  0.74797124  0.92688715  0.30563399     0.43900
N1139       N  0.73285174  0.87869522  0.32960700    -0.33400
N1140       N  0.74496931  0.90432762  0.32713422    -0.27600
C1141       C  0.75207966  0.91457031  0.34056340    -0.03700
C1142       C  0.74372526  0.89470630  0.35197931     0.08500
C1143       C  0.73176115  0.87202008  0.34452012     0.02300
H1144       H  0.76141846  0.93676959  0.34202772     0.09900
H1145       H  0.72198446  0.85366783  0.34957421     0.09000
N1146       N  0.74656110  0.94491077  0.28324968    -0.34800
N1147       N  0.73313369  0.93757969  0.27354938    -0.27000
C1148       C  0.73718749  0.95297149  0.26013112    -0.02200
C1149       C  0.75388075  0.97073661  0.26136635     0.06400
C1150       C  0.75939866  0.96507482  0.27620950     0.04500
H1151       H  0.72873637  0.95082574  0.25007963     0.09600
H1152       H  0.77199026  0.97423898  0.28150435     0.08400
N1153       N  0.08664006  0.83323624  0.45513489    -0.26000
N1154       N  0.08584110  0.82688107  0.44041172    -0.33800
C1155       C  0.09926706  0.80406163  0.43655230     0.02400
C1156       C  0.10919068  0.79544934  0.44934366     0.08400
C1157       C  0.10084287  0.81439861  0.46103164    -0.04700
H1158       H  0.10189978  0.79498283  0.42510440     0.09100
H1159       H  0.10484103  0.81475360  0.47283789     0.10300
Cu1160     Cu  0.06793890  0.85099897  0.42541006     0.44200
Cu1161     Cu  0.06818424  0.86825440  0.46571709     0.42000
Cu1162     Cu  0.03970055  0.92035686  0.43857371     0.43900
N1163       N  0.05307668  0.88309842  0.41092164    -0.33400
N1164       N  0.04323147  0.91042428  0.41569935    -0.27600
C1165       C  0.03736093  0.92915915  0.40361990    -0.03700
C1166       C  0.04362273  0.91228622  0.39064857     0.08500
C1167       C  0.05354515  0.88320537  0.39570984     0.02300
H1168       H  0.02960127  0.95366317  0.40424503     0.09900
H1169       H  0.06156980  0.86489456  0.38889760     0.09000
N1170       N  0.03756997  0.92300557  0.46194350    -0.34800
N1171       N  0.04755970  0.90470770  0.47179223    -0.27000
C1172       C  0.04197513  0.91339848  0.48591558    -0.02200
C1173       C  0.02785908  0.93817920  0.48485974     0.06400
C1174       C  0.02547180  0.94356110  0.46947427     0.04500
H1175       H  0.04770337  0.90236488  0.49620511     0.09600
H1176       H  0.01566815  0.96100849  0.46400266     0.08400
N1177       N  0.94540748  0.62399308  0.53234505    -0.26000
N1178       N  0.94325608  0.62833036  0.54710243    -0.33800
C1179       C  0.92839136  0.64868747  0.54975077     0.02400
C1180       C  0.92057069  0.65776456  0.53598211     0.08400
C1181       C  0.93182816  0.64187948  0.52514436    -0.04700
H1182       H  0.92365149  0.65599142  0.56096627     0.09100
H1183       H  0.92998725  0.64249543  0.51298770     0.10300
Cu1184     Cu  0.95974244  0.60529828  0.56334012     0.44200
Cu1185     Cu  0.96652638  0.59206963  0.52359577     0.42000
Cu1186     Cu  0.99620352  0.54764546  0.55257048     0.43900
N1187       N  0.97594096  0.57893256  0.57883339    -0.33400
N1188       N  0.98975219  0.55771579  0.57507501    -0.27600
C1189       C  0.99690462  0.54343782  0.58779522    -0.03700
C1190       C  0.98681756  0.55602167  0.60004404     0.08500
C1191       C  0.97371282  0.57854257  0.59392226     0.02300
H1192       H  0.00789884  0.52395018  0.58803545     0.09900
H1193       H  0.96298726  0.59286971  0.59993285     0.09000
N1194       N  0.99908665  0.54217022  0.52928338    -0.34800
N1195       N  0.98867879  0.55800869  0.51895297    -0.27000
C1196       C  0.99483837  0.54864921  0.50510480    -0.02200
C1197       C  0.00973204  0.52593308  0.50678030     0.06400
C1198       C  0.01202779  0.52237206  0.52226822     0.04500
H1199       H  0.98894219  0.55784766  0.49455362     0.09600
H1200       H  0.02239692  0.50686802  0.52810029     0.08400
N1201       N  0.85232121  0.74348713  0.53771443    -0.26000
N1202       N  0.84824630  0.73057420  0.55128608    -0.33800
C1203       C  0.86119953  0.70698475  0.55534043     0.02400
C1204       C  0.87412082  0.70459264  0.54385299     0.08400
C1205       C  0.86810368  0.72806252  0.53274861    -0.04700
H1206       H  0.86161597  0.69365782  0.56621273     0.09100
H1207       H  0.87502813  0.73457309  0.52219667     0.10300
Cu1208     Cu  0.82724490  0.74850573  0.56526977     0.44200
Cu1209     Cu  0.83660977  0.78357143  0.52763059     0.42000
Cu1210     Cu  0.80575697  0.82877410  0.55494926     0.43900
N1211       N  0.81161369  0.77767859  0.58043017    -0.33400
N1212       N  0.80452546  0.80891109  0.57689438    -0.27600
C1213       C  0.79793723  0.82430794  0.58958482    -0.03700
C1214       C  0.80089421  0.80141575  0.60164291     0.08500
C1215       C  0.80958696  0.77206218  0.59539912     0.02300
H1216       H  0.79216662  0.85080336  0.59010466     0.09900
H1217       H  0.81538153  0.74964712  0.60142741     0.09000
N1218       N  0.80632032  0.83857194  0.53178057    -0.34800
N1219       N  0.81720403  0.82239116  0.52184537    -0.27000
C1220       C  0.81247536  0.83303636  0.50778713    -0.02200
C1221       C  0.79788095  0.85675436  0.50893000     0.06400
C1222       C  0.79444162  0.85971747  0.52433544     0.04500
H1223       H  0.81865725  0.82303629  0.49744547     0.09600
H1224       H  0.78363766  0.87491732  0.52981646     0.08400
N1225       N  0.68390631  0.96194323  0.46114248    -0.26000
N1226       N  0.67880727  0.95165542  0.44748384    -0.33800
C1227       C  0.68179379  0.54208169  0.44003700     0.02400
C1228       C  0.67291985  0.54827840  0.45377097     0.08400
C1229       C  0.68228113  0.52713073  0.46412828    -0.04700
H1230       H  0.67836355  0.55299536  0.42906052     0.09100
H1231       H  0.67906703  0.52399385  0.47604691     0.10300
Cu1232     Cu  0.69623103  0.92773839  0.43209278     0.44200
Cu1233     Cu  0.71020433  0.94966797  0.46929155     0.42000
Cu1234     Cu  0.74384547  0.91651693  0.43991834     0.43900
N1235       N  0.71535220  0.91487986  0.41564693    -0.33400
N1236       N  0.73333012  0.91240918  0.41802731    -0.27600
C1237       C  0.74184800  0.90530716  0.40469454    -0.03700
C1238       C  0.72835557  0.90301549  0.39357250     0.08500
C1239       C  0.71183273  0.90908186  0.40096568     0.02300
H1240       H  0.75655374  0.90097703  0.40331359     0.09900
H1241       H  0.69816985  0.90939588  0.39600748     0.09000
N1242       N  0.74816078  0.91639337  0.46329707    -0.34800
N1243       N  0.73633097  0.92828252  0.47364627    -0.27000
C1244       C  0.74329380  0.92182229  0.48750167    -0.02200
C1245       C  0.76018181  0.90498605  0.48587385     0.06400
C1246       C  0.76284940  0.90200903  0.47036542     0.04500
H1247       H  0.73626265  0.92789094  0.49804060     0.09600
H1248       H  0.77432887  0.88948158  0.46457303     0.08400
N1249       N  0.60533317  0.63786893  0.45438421    -0.26000
N1250       N  0.60418312  0.63454063  0.43949265    -0.33800
C1251       C  0.61833987  0.61482735  0.43442131     0.02400
C1252       C  0.62906607  0.60482847  0.44657134     0.08400
C1253       C  0.62043065  0.61981512  0.45917267    -0.04700
H1254       H  0.62090149  0.60887958  0.42259254     0.09100
H1255       H  0.62502201  0.61856544  0.47081960     0.10300
Cu1256     Cu  0.58494982  0.65927699  0.42584441     0.44200
Cu1257     Cu  0.58643331  0.66929927  0.46658615     0.42000
Cu1258     Cu  0.55934232  0.72932772  0.44156617     0.43900
N1259       N  0.56942641  0.69333583  0.41269344    -0.33400
N1260       N  0.56089109  0.72130073  0.41840044    -0.27600
C1261       C  0.55362750  0.74052176  0.40699651    -0.03700
C1262       C  0.55751816  0.72323908  0.39352485     0.08500
C1263       C  0.56759665  0.69347903  0.39755076     0.02300
H1264       H  0.54604789  0.76508644  0.40840925     0.09900
H1265       H  0.57384647  0.67423697  0.39000377     0.09000
N1266       N  0.55619644  0.72551012  0.46486177    -0.34800
N1267       N  0.56551057  0.70406027  0.47397985    -0.27000
C1268       C  0.55885371  0.70803245  0.48820350    -0.02200
C1269       C  0.54469642  0.73290975  0.48796329     0.06400
C1270       C  0.54347461  0.74336553  0.47294944     0.04500
H1271       H  0.56377323  0.69349557  0.49798678     0.09600
H1272       H  0.53393776  0.76228129  0.46807131     0.08400
N1273       N  0.43277641  0.85148495  0.53388663    -0.26000
N1274       N  0.42603841  0.84391080  0.54743998    -0.33800
C1275       C  0.40998800  0.86107164  0.54946252     0.02400
C1276       C  0.40635025  0.88084649  0.53655208     0.08400
C1277       C  0.42101769  0.87380988  0.52680560    -0.04700
H1278       H  0.40197565  0.86004597  0.55984195     0.09100
H1279       H  0.42340313  0.88538468  0.51573244     0.10300
Cu1280     Cu  0.44009861  0.81493433  0.56346974     0.44200
Cu1281     Cu  0.45843797  0.83206450  0.52713154     0.42000
Cu1282     Cu  0.48711295  0.78857506  0.55703765     0.43900
N1283       N  0.45673278  0.79413078  0.58012470    -0.33400
N1284       N  0.47437844  0.78591721  0.57829816    -0.27600
C1285       C  0.48108667  0.77435260  0.59169532    -0.03700
C1286       C  0.46677893  0.77519047  0.60225619     0.08500
C1287       C  0.45163619  0.78768637  0.59449363     0.02300
H1288       H  0.49504107  0.76487452  0.59345520     0.09900
H1289       H  0.43783772  0.79182306  0.59896936     0.09000
N1290       N  0.49358031  0.78990325  0.53392928    -0.34800
N1291       N  0.48334866  0.80564933  0.52345068    -0.27000
C1292       C  0.49103277  0.79998537  0.50977114    -0.02200
C1293       C  0.50674582  0.77961447  0.51158922     0.06400
C1294       C  0.50800232  0.77370281  0.52707094     0.04500
H1295       H  0.48531583  0.80938390  0.49917152     0.09600
H1296       H  0.51839759  0.75833064  0.53293734     0.08400
N1297       N  0.34283062  0.97916618  0.53940710    -0.26000
N1298       N  0.34496336  0.98163868  0.55423555    -0.33800
C1299       C  0.35949272  0.96207092  0.55851464     0.02400
C1300       C  0.36707455  0.94636827  0.54585167     0.08400
C1301       C  0.35624163  0.95778449  0.53380701    -0.04700
H1302       H  0.36372543  0.95825234  0.57015779     0.09100
H1303       H  0.35744038  0.94986679  0.52205627     0.10300
Cu1304     Cu  0.32682491  0.00653751  0.56871589     0.44200
Cu1305     Cu  0.32024070  0.00282772  0.52866422     0.42000
Cu1306     Cu  0.29419420  0.52990906  0.55340978     0.37500
N1307       N  0.30577044  0.02176530  0.58301089    -0.33400
N1308       N  0.29654555  0.50948098  0.57519303    -0.27600
C1309       C  0.29031520  0.52290398  0.58841050    -0.03700
C1310       C  0.29556935  0.50004991  0.59997202     0.08500
C1311       C  0.30649368  0.02431144  0.59815293     0.02300
H1312       H  0.28287047  0.54769293  0.58952617     0.09900
H1313       H  0.31874617  0.01940225  0.60483591     0.09000
N1314       N  0.29264650  0.54178499  0.53044181    -0.34800
N1315       N  0.30295342  0.52713599  0.51968414    -0.27000
C1316       C  0.29762438  0.54025968  0.50616711    -0.02200
C1317       C  0.28332249  0.56415888  0.50851297     0.06400
C1318       C  0.28056131  0.56442684  0.52405712     0.04500
H1319       H  0.30355029  0.53257248  0.49537285     0.09600
H1320       H  0.27038080  0.57951044  0.53034638     0.08400
N1321       N  0.17950918  0.71238330  0.46315972    -0.26000
N1322       N  0.17570976  0.71027799  0.44856079    -0.33800
C1323       C  0.16019562  0.72835175  0.44559731     0.02400
C1324       C  0.15357099  0.74284707  0.45898122     0.08400
C1325       C  0.16624110  0.73223218  0.46992945    -0.04700
H1326       H  0.15455214  0.73114972  0.43433465     0.09100
H1327       H  0.16588097  0.73866279  0.48187565     0.10300
Cu1328     Cu  0.19199666  0.68562335  0.43257984     0.44200
Cu1329     Cu  0.20305504  0.68749124  0.47210184     0.42000
Cu1330     Cu  0.23574417  0.65266120  0.44256723     0.43900
N1331       N  0.21078935  0.66818266  0.41670205    -0.33400
N1332       N  0.22760987  0.65729902  0.42014048    -0.27600
C1333       C  0.23660827  0.64855000  0.40724734    -0.03700
C1334       C  0.22464459  0.65415193  0.39523170     0.08500
C1335       C  0.20844573  0.66639147  0.40166133     0.02300
H1336       H  0.25042863  0.63760230  0.40673820     0.09900
H1337       H  0.19578691  0.67321063  0.39584151     0.09000
N1338       N  0.23845754  0.64537580  0.46578786    -0.34800
N1339       N  0.22701151  0.65751981  0.47636230    -0.27000
C1340       C  0.23286138  0.64579961  0.48997526    -0.02200
C1341       C  0.24856718  0.62524115  0.48786437     0.06400
C1342       C  0.25170384  0.62567453  0.47237803     0.04500
H1343       H  0.22592328  0.65113285  0.50062743     0.09600
H1344       H  0.26257906  0.61218012  0.46621025     0.08400
N1345       N  0.18721788  0.84125398  0.79255203    -0.26000
N1346       N  0.18729211  0.83075239  0.80686107    -0.33800
C1347       C  0.17278301  0.80956973  0.80952384     0.02400
C1348       C  0.16288400  0.80594823  0.79634599     0.08400
C1349       C  0.17238928  0.82637518  0.78564948    -0.04700
H1350       H  0.16938431  0.79830167  0.82049128     0.09100
H1351       H  0.16848448  0.83107327  0.77398863     0.10300
Cu1352     Cu  0.20561407  0.84686716  0.82317550     0.44200
Cu1353     Cu  0.20739423  0.87714865  0.78456829     0.42000
Cu1354     Cu  0.23883683  0.91125295  0.81536980     0.43900
N1355       N  0.22168870  0.86833040  0.83995037    -0.33400
N1356       N  0.23424119  0.89301541  0.83728822    -0.27600
C1357       C  0.24122888  0.90403051  0.85062418    -0.03700
C1358       C  0.23236645  0.88552589  0.86217124     0.08500
C1359       C  0.22015280  0.86296024  0.85492960     0.02300
H1360       H  0.25119411  0.92527407  0.85186840     0.09900
H1361       H  0.21031635  0.84492973  0.86011550     0.09000
N1362       N  0.24071436  0.92395764  0.79247111    -0.34800
N1363       N  0.22983912  0.91223949  0.78148500    -0.27000
C1364       C  0.23586237  0.92606293  0.76821174    -0.02200
C1365       C  0.25119084  0.94732847  0.77102917     0.06400
C1366       C  0.25376289  0.94529868  0.78648443     0.04500
H1367       H  0.22959074  0.92073915  0.75734810     0.09600
H1368       H  0.26450665  0.95821463  0.79295172     0.08400
N1369       N  0.33904222  0.59090050  0.70746387    -0.26000
N1370       N  0.33584725  0.60625871  0.69422862    -0.33800
C1371       C  0.34912027  0.63023196  0.69138308     0.02400
C1372       C  0.36146353  0.63011581  0.70323806     0.08400
C1373       C  0.35468189  0.60486184  0.71335317    -0.04700
H1374       H  0.35040600  0.64499213  0.68088190     0.09100
H1375       H  0.36108710  0.59597695  0.72375435     0.10300
Cu1376     Cu  0.31635273  0.59012406  0.67860511     0.44200
Cu1377     Cu  0.32263885  0.54916912  0.71558010     0.42000
Cu1378     Cu  0.29426795  0.50823273  0.68570222     0.43900
N1379       N  0.30261667  0.56249612  0.66184482    -0.33400
N1380       N  0.29527613  0.53085856  0.66427515    -0.27600
C1381       C  0.28997537  0.51695757  0.65093798    -0.03700
C1382       C  0.29413672  0.54127173  0.63958673     0.08500
C1383       C  0.30200706  0.56989001  0.64693396     0.02300
H1384       H  0.28406829  0.49074974  0.64959181     0.09900
H1385       H  0.30801772  0.59326196  0.64171264     0.09000
N1386       N  0.29389787  0.49296275  0.70830491    -0.34800
N1387       N  0.30393834  0.50753839  0.71916307    -0.27000
C1388       C  0.29978015  0.49142870  0.73241525    -0.02200
C1389       C  0.28650873  0.46554306  0.72970436     0.06400
C1390       C  0.28314304  0.46740499  0.71433782     0.04500
H1391       H  0.30585154  0.49839535  0.74318680     0.09600
H1392       H  0.27344927  0.45148621  0.70799153     0.08400
N1393       N  0.60393297  0.94227591  0.78131576    -0.26000
N1394       N  0.62694087  0.38845056  0.79718767    -0.33800
C1395       C  0.64345561  0.40319637  0.79991525     0.02400
C1396       C  0.64829985  0.42438309  0.78776793     0.08400
C1397       C  0.63376778  0.42093847  0.77756899    -0.04700
H1398       H  0.65067701  0.40115291  0.81060817     0.09100
H1399       H  0.63204882  0.43509527  0.76698015     0.10300
Cu1400     Cu  0.58313498  0.93812390  0.81100683     0.44200
Cu1401     Cu  0.58588989  0.90329858  0.77313399     0.42000
Cu1402     Cu  0.55660246  0.86083135  0.80249972     0.43900
N1403       N  0.56755901  0.91151975  0.82707668    -0.33400
N1404       N  0.55863844  0.88162421  0.82426915    -0.27600
C1405       C  0.55257300  0.86781138  0.83749437    -0.03700
C1406       C  0.55775047  0.89044169  0.84909297     0.08500
C1407       C  0.56720065  0.91788925  0.84205243     0.02300
H1408       H  0.54557283  0.84253487  0.83864352     0.09900
H1409       H  0.57456291  0.93936619  0.84748838     0.09000
N1410       N  0.55562014  0.84884492  0.77948562    -0.34800
N1411       N  0.56601556  0.86405025  0.76889799    -0.27000
C1412       C  0.56086943  0.85150532  0.75525188    -0.02200
C1413       C  0.54653420  0.82749378  0.75730288     0.06400
C1414       C  0.54363351  0.82642450  0.77284366     0.04500
H1415       H  0.56672030  0.86014394  0.74454560     0.09600
H1416       H  0.53320457  0.81143704  0.77892651     0.08400
N1417       N  0.43824573  0.69065387  0.71283691    -0.26000
N1418       N  0.43462808  0.68846954  0.69819978    -0.33800
C1419       C  0.41817449  0.67281085  0.69625225     0.02400
C1420       C  0.41081035  0.66458049  0.71033790     0.08400
C1421       C  0.42402297  0.67592582  0.72064567    -0.04700
H1422       H  0.41208060  0.66786299  0.68527958     0.09100
H1423       H  0.42313329  0.67444924  0.73287892     0.10300
Cu1424     Cu  0.45133582  0.70796138  0.68110846     0.44200
Cu1425     Cu  0.46216224  0.71594514  0.72065163     0.42000
Cu1426     Cu  0.49136890  0.75771827  0.69065147     0.43900
N1427       N  0.46796642  0.73194335  0.66503529    -0.33400
N1428       N  0.48288147  0.75056665  0.66836648    -0.27600
C1429       C  0.49018259  0.76374658  0.65542836    -0.03700
C1430       C  0.47915376  0.75311428  0.64345808     0.08500
C1431       C  0.46524325  0.73285414  0.65000470     0.02300
H1432       H  0.50223675  0.78075233  0.65483234     0.09900
H1433       H  0.45380022  0.72005101  0.64434745     0.09000
N1434       N  0.49666742  0.76015022  0.71380703    -0.34800
N1435       N  0.48637931  0.74511657  0.72451820    -0.27000
C1436       C  0.49380203  0.75266616  0.73811502    -0.02200
C1437       C  0.50942722  0.77338060  0.73591294     0.06400
C1438       C  0.51081437  0.77757381  0.72033611     0.04500
H1439       H  0.48805055  0.74418511  0.74887863     0.09600
H1440       H  0.52113456  0.79257148  0.71413454     0.08400
N1441       N  0.94566336  0.94819606  0.71213519    -0.26000
N1442       N  0.94125583  0.94665087  0.69765638    -0.33800
C1443       C  0.92466719  0.93130267  0.69615242     0.02400
C1444       C  0.91803736  0.92256153  0.71042236     0.08400
C1445       C  0.93181379  0.93338001  0.72034352    -0.04700
H1446       H  0.91810719  0.92656977  0.68534958     0.09100
H1447       H  0.93162972  0.93118750  0.73257371     0.10300
Cu1448     Cu  0.95771491  0.96519005  0.68036225     0.44200
Cu1449     Cu  0.97030389  0.97247901  0.71875291     0.42000
Cu1450     Cu  0.98808882  0.52782229  0.68687470     0.43900
N1451       N  0.97436221  0.98381339  0.66320805    -0.33400
N1452       N  0.97801966  0.52475064  0.66488784    -0.27600
C1453       C  0.98529540  0.53666079  0.65170828    -0.03700
C1454       C  0.97245559  0.53057926  0.64036262     0.08500
C1455       C  0.97008172  0.98444201  0.64846289     0.02300
H1456       H  0.99844956  0.55015778  0.65060806     0.09900
H1457       H  0.95726002  0.97439772  0.64386491     0.09000
N1458       N  0.99320751  0.52893650  0.71006789    -0.34800
N1459       N  0.98326879  0.51260892  0.72067089    -0.27000
C1460       C  0.99048256  0.52037610  0.73431923    -0.02200
C1461       C  0.00553323  0.54265541  0.73226412     0.06400
C1462       C  0.00684690  0.54749842  0.71673184     0.04500
H1463       H  0.98487466  0.51118797  0.74502791     0.09600
H1464       H  0.01670842  0.56383586  0.71064967     0.08400
N1465       N  0.09633271  0.71598137  0.78005972    -0.26000
N1466       N  0.09458729  0.72696176  0.79422567    -0.33800
C1467       C  0.10792277  0.75064914  0.79723164     0.02400
C1468       C  0.11888020  0.75494866  0.78441029     0.08400
C1469       C  0.11098263  0.73274097  0.77366580    -0.04700
H1470       H  0.10973695  0.76287906  0.80820907     0.09100
H1471       H  0.11600934  0.72795493  0.76227638     0.10300
Cu1472     Cu  0.07619859  0.70647605  0.81007096     0.44200
Cu1473     Cu  0.07918897  0.67654317  0.77100324     0.42000
Cu1474     Cu  0.05043502  0.63043461  0.79949024     0.43900
N1475       N  0.06186402  0.67575426  0.82568889    -0.33400
N1476       N  0.05293351  0.64655731  0.82181990    -0.27600
C1477       C  0.04761874  0.62920327  0.83445788    -0.03700
C1478       C  0.05336668  0.64857512  0.84687739     0.08500
C1479       C  0.06232584  0.67803279  0.84090179     0.02300
H1480       H  0.04088345  0.60353575  0.83459683     0.09900
H1481       H  0.06990209  0.69806121  0.84709238     0.09000
N1482       N  0.04953380  0.62052905  0.77640546    -0.34800
N1483       N  0.05974014  0.63696564  0.76604300    -0.27000
C1484       C  0.05482908  0.62496685  0.75224579    -0.02200
C1485       C  0.04089706  0.59995408  0.75401652     0.06400
C1486       C  0.03795136  0.59781447  0.76951494     0.04500
H1487       H  0.06064733  0.63441467  0.74165239     0.09600
H1488       H  0.02783705  0.58171431  0.77543219     0.08400
N1489       N  0.84688635  0.84652586  0.71052916    -0.26000
N1490       N  0.84262769  0.86150719  0.69741682    -0.33800
C1491       C  0.85558605  0.88556118  0.69379350     0.02400
C1492       C  0.86878825  0.88590184  0.70500700     0.08400
C1493       C  0.86287495  0.86084897  0.71555227    -0.04700
H1494       H  0.85603145  0.90006370  0.68318736     0.09100
H1495       H  0.87009202  0.85228868  0.72563710     0.10300
Cu1496     Cu  0.82211824  0.84470544  0.68281339     0.44200
Cu1497     Cu  0.83147547  0.80469612  0.71973469     0.42000
Cu1498     Cu  0.80142009  0.76269097  0.69136898     0.43900
N1499       N  0.80781431  0.81590335  0.66673561    -0.33400
N1500       N  0.80091959  0.78416940  0.66973202    -0.27600
C1501       C  0.79551307  0.76895535  0.65669109    -0.03700
C1502       C  0.79904550  0.79243903  0.64493384     0.08500
C1503       C  0.80684239  0.82200246  0.65172937     0.02300
H1504       H  0.79033035  0.74208491  0.65574110     0.09900
H1505       H  0.81285947  0.84482033  0.64608803     0.09000
N1506       N  0.80247177  0.74818740  0.71402789    -0.34800
N1507       N  0.81308588  0.76318572  0.72439594    -0.27000
C1508       C  0.80943030  0.74797082  0.73793354    -0.02200
C1509       C  0.79591858  0.72227814  0.73596541     0.06400
C1510       C  0.79187754  0.72320664  0.72064591     0.04500
H1511       H  0.81590622  0.75548358  0.74849909     0.09600
H1512       H  0.78171194  0.70752748  0.71467560     0.08400
N1513       N  0.70334914  0.54437612  0.77826524    -0.26000
N1514       N  0.70009781  0.53964969  0.79287108    -0.33800
C1515       C  0.68740117  0.51403883  0.79474081     0.02400
C1516       C  0.68220062  0.50172118  0.78060683     0.08400
C1517       C  0.69248201  0.52184504  0.77036105    -0.04700
H1518       H  0.68211663  0.50558070  0.80565950     0.09100
H1519       H  0.69224359  0.51992494  0.75812688     0.10300
Cu1520     Cu  0.71262666  0.56847327  0.80980156     0.44200
Cu1521     Cu  0.72320587  0.58112795  0.77096291     0.42000
Cu1522     Cu  0.75029503  0.62622360  0.80184234     0.43900
N1523       N  0.72544524  0.59845108  0.82620491    -0.33400
N1524       N  0.73995149  0.61901662  0.82367955    -0.27600
C1525       C  0.74441513  0.63564532  0.83671292    -0.03700
C1526       C  0.73184908  0.62508050  0.84779233     0.08500
C1527       C  0.72006156  0.60173378  0.84069402     0.02300
H1528       H  0.75518068  0.65545134  0.83778956     0.09900
H1529       H  0.70808121  0.58876971  0.84560361     0.09000
N1530       N  0.75430433  0.63339198  0.77864375    -0.34800
N1531       N  0.74457693  0.61800249  0.76776506    -0.27000
C1532       C  0.75045762  0.63057273  0.75428275    -0.02200
C1533       C  0.76444494  0.65494293  0.75673079     0.06400
C1534       C  0.76653654  0.65604041  0.77231337     0.04500
H1535       H  0.74472683  0.62293333  0.74344455     0.09600
H1536       H  0.77592989  0.67259051  0.77868691     0.08400
N1537       N  0.59700410  0.83954400  0.96187472    -0.26000
N1538       N  0.59691533  0.82888514  0.94761199    -0.33800
C1539       C  0.61085873  0.80605626  0.94534665     0.02400
C1540       C  0.62044919  0.80184684  0.95882064     0.08400
C1541       C  0.61120795  0.82353451  0.96909001    -0.04700
H1542       H  0.61421773  0.79509574  0.93435790     0.09100
H1543       H  0.61499888  0.82843522  0.98074747     0.10300
Cu1544     Cu  0.58027542  0.84933125  0.93070768     0.44200
Cu1545     Cu  0.57868543  0.87828664  0.96976567     0.42000
Cu1546     Cu  0.55552213  0.92803521  0.93905091     0.43900
N1547       N  0.56745660  0.87923242  0.91412347    -0.33400
N1548       N  0.55918138  0.90974526  0.91705901    -0.27600
C1549       C  0.55400267  0.92486448  0.90389803    -0.03700
C1550       C  0.55897943  0.90236580  0.89217679     0.08500
C1551       C  0.56753561  0.87372861  0.89906839     0.02300
H1552       H  0.54727285  0.95042351  0.90292526     0.09900
H1553       H  0.57415784  0.85146292  0.89353214     0.09000
N1554       N  0.55159362  0.93724499  0.96205415    -0.34800
N1555       N  0.55972093  0.91942976  0.97314179    -0.27000
C1556       C  0.55363950  0.93222616  0.98652947    -0.02200
C1557       C  0.54108704  0.95930183  0.98368689     0.06400
C1558       C  0.54013365  0.96159275  0.96808786     0.04500
H1559       H  0.55794408  0.92226118  0.99746170     0.09600
H1560       H  0.53166736  0.97962345  0.96157187     0.08400
N1561       N  0.45558917  0.60850177  0.03312050    -0.26000
N1562       N  0.45879186  0.62361954  0.04639323    -0.33800
C1563       C  0.44560654  0.64764394  0.04931594     0.02400
C1564       C  0.43320400  0.64802077  0.03752528     0.08400
C1565       C  0.43994716  0.62291922  0.02729739    -0.04700
H1566       H  0.44427728  0.66176835  0.05994949     0.09100
H1567       H  0.43333329  0.61409025  0.01698943     0.10300
Cu1568     Cu  0.47730139  0.60645496  0.06258656     0.44200
Cu1569     Cu  0.47205152  0.56603708  0.02511508     0.42000
Cu1570     Cu  0.49829255  0.52507528  0.05657078     0.43900
N1571       N  0.48837830  0.57760298  0.08028073    -0.33400
N1572       N  0.49558209  0.54584078  0.07808858    -0.27600
C1573       C  0.49882964  0.53049559  0.09159751    -0.03700
C1574       C  0.49345121  0.55392435  0.10284364     0.08500
C1575       C  0.48688080  0.58360047  0.09525584     0.02300
H1576       H  0.50388097  0.50367047  0.09311285     0.09900
H1577       H  0.48018279  0.60657595  0.10017619     0.09000
N1578       N  0.50097976  0.51119455  0.03403840    -0.34800
N1579       N  0.49189094  0.52522112  0.02247224    -0.27000
C1580       C  0.49825465  0.51002656  0.00956269    -0.02200
C1581       C  0.51195658  0.48559085  0.01335023     0.06400
C1582       C  0.51318208  0.48719791  0.02889653     0.04500
H1583       H  0.49354417  0.51681306  0.99830769     0.09600
H1584       H  0.52259742  0.47235268  0.03602833     0.08400
N1585       N  0.35916279  0.72093616  0.02914430    -0.26000
N1586       N  0.36072590  0.70981420  0.04330603    -0.33800
C1587       C  0.37588081  0.68951863  0.04461126     0.02400
C1588       C  0.38455355  0.68746640  0.03061235     0.08400
C1589       C  0.37341854  0.70739710  0.02097899    -0.04700
H1590       H  0.38049878  0.67794881  0.05517002     0.09100
H1591       H  0.37602525  0.71311041  0.00913345     0.10300
Cu1592     Cu  0.34395432  0.72574856  0.06105656     0.44200
Cu1593     Cu  0.33841849  0.75731793  0.02285451     0.42000
Cu1594     Cu  0.31238591  0.79691741  0.05523900     0.43900
N1595       N  0.33020915  0.75050415  0.07868545    -0.33400
N1596       N  0.31920941  0.77818149  0.07680894    -0.27600
C1597       C  0.31400085  0.79029612  0.09057796    -0.03700
C1598       C  0.32203071  0.76879338  0.10154056     0.08500
C1599       C  0.33207599  0.74381768  0.09356575     0.02300
H1600       H  0.30502760  0.81287447  0.09245428     0.09900
H1601       H  0.34067106  0.72302751  0.09825325     0.09000
N1602       N  0.30786950  0.80920199  0.03243025    -0.34800
N1603       N  0.31711064  0.79528939  0.02085543    -0.27000
C1604       C  0.31043131  0.80929181  0.00789386    -0.02200
C1605       C  0.29632834  0.83295632  0.01140112     0.06400
C1606       C  0.29512420  0.83214610  0.02709175     0.04500
H1607       H  0.31536490  0.80248685  0.99666960     0.09600
H1608       H  0.28563450  0.84694190  0.03418166     0.08400
N1609       N  0.18287493  0.96639817  0.97233447    -0.26000
N1610       N  0.17655163  0.95601615  0.95903748    -0.33800
C1611       C  0.16485581  0.44733278  0.94708924     0.02400
C1612       C  0.15824098  0.46253075  0.96033996     0.08400
C1613       C  0.17100708  0.45268543  0.97134936    -0.04700
H1614       H  0.15926012  0.44983695  0.93579938     0.09100
H1615       H  0.17081463  0.46018340  0.98318100     0.10300
Cu1616     Cu  0.19094550  0.92555129  0.94371684     0.44200
Cu1617     Cu  0.20880817  0.94766336  0.98010580     0.42000
Cu1618     Cu  0.23865714  0.91209446  0.94886005     0.43900
N1619       N  0.20800855  0.90842702  0.92654181    -0.33400
N1620       N  0.22613286  0.90580319  0.92790913    -0.27600
C1621       C  0.23346036  0.89714001  0.91431753    -0.03700
C1622       C  0.21905379  0.89399959  0.90407163     0.08500
C1623       C  0.20318783  0.90112891  0.91223093     0.02300
H1624       H  0.24802598  0.89277047  0.91216007     0.09900
H1625       H  0.18917433  0.90183485  0.90799030     0.09000
N1626       N  0.24511273  0.90977671  0.97178044    -0.34800
N1627       N  0.23458784  0.92161830  0.98304499    -0.27000
C1628       C  0.24247501  0.91175646  0.99626221    -0.02200
C1629       C  0.25854832  0.89274143  0.99318397     0.06400
C1630       C  0.25974275  0.89225947  0.97751433     0.04500
H1631       H  0.23655859  0.91679484  0.00734121     0.09600
H1632       H  0.27003149  0.87888004  0.97065978     0.08400
N1633       N  0.95343046  0.85839829  0.03079602    -0.26000
N1634       N  0.95473315  0.87080265  0.04475433    -0.33800
C1635       C  0.93996514  0.89116870  0.04782518     0.02400
C1636       C  0.92864597  0.89175728  0.03520332     0.08400
C1637       C  0.93772828  0.87099549  0.02453303    -0.04700
H1638       H  0.93744204  0.90362702  0.05868019     0.09100
H1639       H  0.93280930  0.86406560  0.01335760     0.10300
Cu1640     Cu  0.97477555  0.85565634  0.06006266     0.44200
Cu1641     Cu  0.97230961  0.82157731  0.02216084     0.42000
Cu1642     Cu  0.00105010  0.77798045  0.05116800     0.43900
N1643       N  0.99056903  0.82890915  0.07581771    -0.33400
N1644       N  0.99929045  0.79884140  0.07287782    -0.27600
C1645       C  0.00576873  0.78524393  0.08594813    -0.03700
C1646       C  0.00095388  0.80819308  0.09759976     0.08500
C1647       C  0.99147194  0.83561293  0.09074061     0.02300
H1648       H  0.01296330  0.76015058  0.08691488     0.09900
H1649       H  0.98459039  0.85754019  0.09632840     0.09000
N1650       N  0.00248901  0.76709659  0.02813532    -0.34800
N1651       N  0.99242958  0.78312872  0.01764581    -0.27000
C1652       C  0.99751555  0.77072881  0.00394121    -0.02200
C1653       C  0.01135351  0.74573413  0.00587856     0.06400
C1654       C  0.01415973  0.74412914  0.02138144     0.04500
H1655       H  0.99162461  0.77942080  0.99330464     0.09600
H1656       H  0.02411149  0.72795965  0.02737400     0.08400
N1657       N  0.09478993  0.56131577  0.95534465    -0.26000
N1658       N  0.09316227  0.55326742  0.94080952    -0.33800
C1659       C  0.10530158  0.52759776  0.93729310     0.02400
C1660       C  0.11523075  0.51887655  0.95009005     0.08400
C1661       C  0.10822023  0.54076334  0.96142061    -0.04700
H1662       H  0.10725237  0.51691526  0.92601547     0.09100
H1663       H  0.11277290  0.54223994  0.97307214     0.10300
Cu1664     Cu  0.07652860  0.57961366  0.92532532     0.44200
Cu1665     Cu  0.07892469  0.60133896  0.96559718     0.42000
Cu1666     Cu  0.05528766  0.65858381  0.93798991     0.43900
N1667       N  0.06428180  0.61543706  0.91057359    -0.33400
N1668       N  0.05737604  0.64598560  0.91526791    -0.27600
C1669       C  0.05262413  0.66572905  0.90317015    -0.03700
C1670       C  0.05645581  0.64638242  0.89023254     0.08500
C1671       C  0.06384969  0.61458031  0.89533161     0.02300
H1672       H  0.04707122  0.69238158  0.90374876     0.09900
H1673       H  0.06947643  0.59330935  0.88848411     0.09000
N1674       N  0.05256667  0.66327563  0.96123148    -0.34800
N1675       N  0.06091574  0.64292992  0.97136288    -0.27000
C1676       C  0.05548899  0.65331390  0.98532134    -0.02200
C1677       C  0.04314452  0.68131315  0.98384879     0.06400
C1678       C  0.04166630  0.68683520  0.96839147     0.04500
H1679       H  0.06006525  0.64119053  0.99578723     0.09600
H1680       H  0.03326470  0.70637675  0.96263587     0.08400
N1681       N  0.85766377  0.96753385  0.04169237    -0.26000
N1682       N  0.85708053  0.95915579  0.05624919    -0.33800
C1683       C  0.87155095  0.93840169  0.05961853     0.02400
C1684       C  0.88190659  0.93325987  0.04664998     0.08400
C1685       C  0.87269995  0.95200618  0.03538125    -0.04700
H1686       H  0.87489713  0.92938820  0.07094175     0.09100
H1687       H  0.87711199  0.95573568  0.02374660     0.10300
Cu1688     Cu  0.83901339  0.98080473  0.07187121     0.44200
Cu1689     Cu  0.83870960  0.00309893  0.03225034     0.42000
Cu1690     Cu  0.80798026  0.55804003  0.04845040     0.43900
N1691       N  0.82504995  0.01238578  0.08721154    -0.33400
N1692       N  0.80832318  0.53875038  0.07045128    -0.27600
C1693       C  0.80465344  0.55606789  0.08345084    -0.03700
C1694       C  0.80759003  0.53292954  0.09540451     0.08500
C1695       C  0.82457044  0.00889774  0.10236911     0.02300
H1696       H  0.80097810  0.58388457  0.08417880     0.09900
H1697       H  0.83115217  0.98765468  0.10862147     0.09000
N1698       N  0.80673760  0.56763985  0.02534154    -0.34800
N1699       N  0.81579094  0.54932858  0.01487345    -0.27000
C1700       C  0.81072816  0.56133266  0.00110219    -0.02200
C1701       C  0.79780295  0.58815983  0.00300774     0.06400
C1702       C  0.79568076  0.59149286  0.01854152     0.04500
H1703       H  0.81560793  0.55048600  0.99045911     0.09600
H1704       H  0.78645581  0.60921070  0.02454957     0.08400
N1705       N  0.69086109  0.72082271  0.95470093    -0.26000
N1706       N  0.68766296  0.71702410  0.94004801    -0.33800
C1707       C  0.67118643  0.73098017  0.93666204     0.02400
C1708       C  0.66340616  0.74464138  0.94966180     0.08400
C1709       C  0.67624441  0.73791527  0.96103373    -0.04700
H1710       H  0.66534457  0.73151096  0.92539714     0.09100
H1711       H  0.67500333  0.74455577  0.97292532     0.10300
Cu1712     Cu  0.70544034  0.69486445  0.92441201     0.44200
Cu1713     Cu  0.71517641  0.70064068  0.96434574     0.42000
Cu1714     Cu  0.74918942  0.66625648  0.93551750     0.43900
N1715       N  0.72473783  0.67710279  0.90894514    -0.33400
N1716       N  0.74155337  0.66728375  0.91289416    -0.27600
C1717       C  0.75092336  0.65703019  0.90039505    -0.03700
C1718       C  0.73925266  0.66026194  0.88805250     0.08500
C1719       C  0.72278049  0.67320088  0.89392206     0.02300
H1720       H  0.76487738  0.64665454  0.90037866     0.09900
H1721       H  0.71021878  0.67907106  0.88778844     0.09000
N1722       N  0.75194825  0.66233757  0.95887165    -0.34800
N1723       N  0.74006737  0.67422878  0.96917742    -0.27000
C1724       C  0.74617879  0.66464501  0.98301074    -0.02200
C1725       C  0.76251569  0.64577527  0.98132116     0.06400
C1726       C  0.76575011  0.64497330  0.96585984     0.04500
H1727       H  0.73896346  0.67010036  0.99352984     0.09600
H1728       H  0.77703868  0.63204108  0.95997741     0.08400
C1729       C  0.78773456  0.60695051  0.99080899    -0.15100
C1730       C  0.77326335  0.62860829  0.99356803    -0.30300
H1731       H  0.79203485  0.60167442  0.97922626     0.13900
H1732       H  0.76866812  0.63314815  0.00513528     0.14500
C1733       C  0.91011101  0.90841206  0.03394262    -0.15100
C1734       C  0.90016813  0.91570141  0.04647550    -0.30300
H1735       H  0.90447450  0.91375810  0.02278070     0.13900
H1736       H  0.90558243  0.90814258  0.05748079     0.14500
C1737       C  0.02098647  0.72613562  0.99364351    -0.15100
C1738       C  0.03365946  0.70063587  0.99627830    -0.30300
H1739       H  0.01729503  0.73294993  0.98209325     0.13900
H1740       H  0.03713805  0.69338084  0.00783220     0.14500
C1741       C  0.14198739  0.48660783  0.96199254    -0.15100
C1742       C  0.13070084  0.49310934  0.95018324    -0.30300
H1743       H  0.13963794  0.49972198  0.97277700     0.13900
H1744       H  0.13309175  0.47956823  0.93952723     0.14500
C1745       C  0.27058181  0.87431109  0.00440481    -0.15100
C1746       C  0.28494234  0.85331317  0.00035376    -0.30300
H1747       H  0.26708935  0.87738098  0.01630957     0.13900
H1748       H  0.28833290  0.85001879  0.98844661     0.14500
C1749       C  0.41517252  0.66659736  0.03849484    -0.15100
C1750       C  0.40267169  0.67014681  0.02732609    -0.30300
H1751       H  0.41208921  0.67834358  0.04946278     0.13900
H1752       H  0.40579703  0.66099742  0.01593144     0.14500
C1753       C  0.63803315  0.78193999  0.96110956    -0.15100
C1754       C  0.64514016  0.76216965  0.94981059    -0.30300
H1755       H  0.64543477  0.78474761  0.97170718     0.13900
H1756       H  0.63752069  0.75962063  0.93933426     0.14500
C1757       C  0.53040274  0.98130233  0.99450143    -0.15100
C1758       C  0.53354163  0.98122022  0.00950279    -0.30300
H1759       H  0.51991447  0.99869418  0.98982732     0.13900
H1760       H  0.54452361  0.96494192  0.01413942     0.14500
C1761       C  0.72918495  0.63845740  0.86331932    -0.15100
C1762       C  0.74303832  0.64946579  0.87222663    -0.30300
H1763       H  0.71525739  0.63670296  0.86794153     0.13900
H1764       H  0.75725404  0.64828223  0.86822202     0.14500
C1765       C  0.78718744  0.70024777  0.74796020    -0.15100
C1766       C  0.77400442  0.67604879  0.74489728    -0.30300
H1767       H  0.79157826  0.70453118  0.75957180     0.13900
H1768       H  0.76971803  0.67166185  0.73327136     0.14500
C1769       C  0.05503165  0.65907799  0.87444862    -0.15100
C1770       C  0.05302013  0.63652757  0.86280576    -0.30300
H1771       H  0.05552212  0.68752105  0.87240340     0.13900
H1772       H  0.05114806  0.60833694  0.86498573     0.14500
C1773       C  0.90012636  0.90504262  0.71396537    -0.15100
C1774       C  0.88641561  0.90546674  0.70370723    -0.30300
H1775       H  0.89831869  0.89162328  0.72477667     0.13900
H1776       H  0.88823097  0.92055264  0.69330471     0.14500
C1777       C  0.01668195  0.55903315  0.74444309    -0.15100
C1778       C  0.03067929  0.58185337  0.74171100    -0.30300
H1779       H  0.01284517  0.55255162  0.75603384     0.13900
H1780       H  0.03455642  0.58829349  0.73012243     0.14500
C1781       C  0.55660349  0.88335619  0.86553053    -0.15100
C1782       C  0.55752974  0.90963724  0.87578987    -0.30300
H1783       H  0.55533771  0.85593213  0.86926486     0.13900
H1784       H  0.55736040  0.93718749  0.87209816     0.14500
C1785       C  0.66393471  0.44972010  0.78821406    -0.15100
C1786       C  0.66813362  0.47389404  0.77747634    -0.30300
H1787       H  0.67199459  0.44931382  0.79857708     0.13900
H1788       H  0.66097700  0.47391514  0.76668239     0.14500
C1789       C  0.52110668  0.78884644  0.74800263    -0.15100
C1790       C  0.53581544  0.80986086  0.74513652    -0.30300
H1791       H  0.51706350  0.78333248  0.75963924     0.13900
H1792       H  0.53988246  0.81535043  0.73350267     0.14500
C1793       C  0.37922082  0.64948946  0.70282551    -0.15100
C1794       C  0.39259473  0.64763796  0.71335218    -0.30300
H1795       H  0.38157095  0.66545077  0.69272668     0.13900
H1796       H  0.39033455  0.63338308  0.72390965     0.14500
C1797       C  0.23377743  0.89203682  0.87864822    -0.15100
C1798       C  0.21947471  0.88463186  0.88790074    -0.30300
H1799       H  0.24593279  0.90549880  0.88299513     0.13900
H1800       H  0.20674737  0.87405878  0.88323197     0.14500
C1801       C  0.14514121  0.78650252  0.79571247    -0.15100
C1802       C  0.13630044  0.77594765  0.78311458    -0.30300
H1803       H  0.13954296  0.77896280  0.80668866     0.13900
H1804       H  0.14223530  0.78120880  0.77200446     0.14500
C1805       C  0.26297430  0.96789258  0.76036880    -0.15100
C1806       C  0.26021680  0.96848122  0.74532158    -0.30300
H1807       H  0.27433600  0.98290452  0.76517625     0.13900
H1808       H  0.24888533  0.95339745  0.74050184     0.14500
C1809       C  0.29360627  0.50454186  0.61651126    -0.15100
C1810       C  0.29292122  0.53674742  0.62299794    -0.30300
H1811       H  0.29478704  0.48095257  0.62355360     0.13900
H1812       H  0.29342859  0.56045703  0.61596246     0.14500
C1813       C  0.27315840  0.58396755  0.49664090    -0.15100
C1814       C  0.25896738  0.60603407  0.49978139    -0.30300
H1815       H  0.27746075  0.57981468  0.48497729     0.13900
H1816       H  0.25454174  0.60990878  0.51143394     0.14500
C1817       C  0.46631391  0.76319241  0.61814909    -0.15100
C1818       C  0.48107906  0.76332684  0.62731648    -0.30300
H1819       H  0.45280299  0.75631227  0.62273061     0.13900
H1820       H  0.49434556  0.77300544  0.62319624     0.14500
C1821       C  0.39116435  0.90681522  0.53439691    -0.15100
C1822       C  0.38217091  0.92012009  0.54648035    -0.30300
H1823       H  0.38793446  0.91603895  0.52304682     0.13900
H1824       H  0.38635239  0.91217070  0.55778440     0.14500
C1825       C  0.53322098  0.74495420  0.50097329    -0.15100
C1826       C  0.51872486  0.76695419  0.49908932    -0.30300
H1827       H  0.53667032  0.73522786  0.51220935     0.13900
H1828       H  0.51512239  0.77604722  0.48780278     0.14500
C1829       C  0.65615158  0.57035032  0.45661346    -0.15100
C1830       C  0.64638227  0.58410459  0.44505336    -0.30300
H1831       H  0.65146363  0.57415556  0.46820961     0.13900
H1832       H  0.65086718  0.57907004  0.43350682     0.14500
C1833       C  0.79860711  0.80974448  0.61790109    -0.15100
C1834       C  0.79831271  0.78424394  0.62858357    -0.30300
H1835       H  0.79766590  0.83750834  0.62115863     0.13900
H1836       H  0.79802834  0.75646173  0.62527900     0.14500
C1837       C  0.78727412  0.87227566  0.49619433    -0.15100
C1838       C  0.77174532  0.89137211  0.49840329    -0.30300
H1839       H  0.79205607  0.86669811  0.48476105     0.13900
H1840       H  0.76685111  0.89650711  0.50983721     0.14500
C1841       C  0.98811802  0.54475184  0.61602878    -0.15100
C1842       C  0.97268594  0.54214851  0.62445770    -0.30300
H1843       H  0.00141500  0.53679318  0.62060584     0.13900
H1844       H  0.95931269  0.54686911  0.61924013     0.14500
C1845       C  0.90346042  0.67872597  0.53352385    -0.15100
C1846       C  0.89134069  0.68372991  0.54493744    -0.30300
H1847       H  0.90064527  0.68927646  0.52231488     0.13900
H1848       H  0.89388391  0.67140320  0.55584978     0.14500
C1849       C  0.12542554  0.77162260  0.44918809    -0.15100
C1850       C  0.13692167  0.76573196  0.46090168    -0.30300
H1851       H  0.12813143  0.75890137  0.43839583     0.13900
H1852       H  0.13430416  0.77809316  0.47181175     0.14500
C1853       C  0.01760261  0.95480772  0.49756851    -0.15100
C1854       C  0.00364698  0.97781999  0.49523112    -0.30300
H1855       H  0.02155521  0.94764052  0.50901901     0.13900
H1856       H  0.99958442  0.98463660  0.48377798     0.14500
C1857       C  0.72985675  0.89370889  0.37739686    -0.15100
C1858       C  0.74454128  0.90123285  0.36854425    -0.30300
H1859       H  0.71740996  0.88298597  0.37230093     0.13900
H1860       H  0.75643593  0.91493496  0.37322774     0.14500
C1861       C  0.80837527  0.54240414  0.11158947    -0.15100
C1862       C  0.80696759  0.51795742  0.12264856    -0.30300
H1863       H  0.81304194  0.02173007  0.13234242     0.13900
H1864       H  0.80341334  0.49065437  0.11993244     0.14500
C1865       C  0.77966954  0.00754654  0.25119219    -0.15100
C1866       C  0.76375358  0.98975262  0.24898266    -0.30300
H1867       H  0.78348379  0.49315165  0.25684843     0.13900
H1868       H  0.75765786  0.98904570  0.23776619     0.14500
C1869       C  0.00354014  0.77084352  0.12043919    -0.15100
C1870       C  0.00276801  0.80322585  0.11410066    -0.30300
H1871       H  0.00360360  0.74736732  0.11329487     0.13900
H1872       H  0.00107874  0.82651132  0.12123066     0.14500
C1873       C  0.90778146  0.65694539  0.19240529    -0.15100
C1874       C  0.89526138  0.65307442  0.20360411    -0.30300
H1875       H  0.90536236  0.64429195  0.18154856     0.13900
H1876       H  0.89796804  0.66381386  0.21478900     0.14500
C1877       C  0.04337789  0.90289425  0.36316691    -0.15100
C1878       C  0.04263748  0.92541639  0.37492935    -0.30300
H1879       H  0.04279932  0.87443104  0.36513958     0.13900
H1880       H  0.04174738  0.95384981  0.37300150     0.14500
C1881       C  0.02588463  0.86711332  0.24009227    -0.15100
C1882       C  0.01123048  0.84528734  0.24176926    -0.30300
H1883       H  0.03087265  0.87383996  0.22881705     0.13900
H1884       H  0.00616554  0.83878193  0.25304358     0.14500
C1885       C  0.24346889  0.64363870  0.37200735    -0.15100
C1886       C  0.22700773  0.64567453  0.37907940    -0.30300
H1887       H  0.25615096  0.64989583  0.37799763     0.13900
H1888       H  0.21438099  0.64239185  0.37259136     0.14500
C1889       C  0.16317925  0.54257786  0.28086127    -0.15100
C1890       C  0.14981700  0.54134790  0.29155294    -0.30300
H1891       H  0.16073462  0.53203561  0.26959936     0.13900
H1892       H  0.15225442  0.55400319  0.30241150     0.14500
C1893       C  0.31891525  0.80210172  0.12560920    -0.15100
C1894       C  0.32088083  0.77113197  0.11824153    -0.30300
H1895       H  0.31816450  0.82677411  0.11922459     0.13900
H1896       H  0.32335056  0.74694014  0.12466164     0.14500
C1897       C  0.29072265  0.70067918  0.24083496    -0.15100
C1898       C  0.29191631  0.70108213  0.25603875    -0.30300
H1899       H  0.28034283  0.68431111  0.23542499     0.13900
H1900       H  0.30240052  0.71716436  0.26146251     0.14500
C1901       C  0.49002336  0.57166572  0.12960160    -0.15100
C1902       C  0.49213866  0.54599757  0.11919702    -0.30300
H1903       H  0.49055524  0.59940798  0.12621383     0.13900
H1904       H  0.49283510  0.51836204  0.12272154     0.14500
C1905       C  0.39581272  0.94676881  0.20793678    -0.15100
C1906       C  0.39163455  0.91937639  0.21714233    -0.30300
H1907       H  0.38687834  0.95273392  0.19843365     0.13900
H1908       H  0.40050150  0.91303571  0.22666935     0.14500
C1909       C  0.55047177  0.71261635  0.36673219    -0.15100
C1910       C  0.55344259  0.73566005  0.37805637    -0.30300
H1911       H  0.54942740  0.68435363  0.36913434     0.13900
H1912       H  0.55299254  0.76408746  0.37592729     0.14500
C1913       C  0.63330010  0.82458357  0.28119543    -0.15100
C1914       C  0.64526659  0.82657483  0.29277369    -0.30300
H1915       H  0.63770528  0.83132181  0.26975925     0.13900
H1916       H  0.64098579  0.81701219  0.30387717     0.14500
C1917       C  0.51223616  0.66270846  0.24713774    -0.15100
C1918       C  0.49778698  0.64099659  0.24994538    -0.30300
H1919       H  0.51660978  0.66770218  0.23554436     0.13900
H1920       H  0.49340048  0.63589277  0.26153946     0.14500
loop_ 
_geom_bond_atom_site_label_1 
_geom_bond_atom_site_label_2 
_geom_bond_distance 
_geom_bond_site_symmetry_2 
_ccdc_geom_bond_type 
N1            N2   1.322       .  A
N1            C5   1.351       .  A
N1           Cu9   2.089       .  S
N2            C3   1.341       .  A
N2           Cu8   2.063       .  S
C3            C4   1.378       .  A
C3            H6   1.083       .  S
C4            C5   1.389       .  A
C4          C953   1.476       .  S
C5            H7   1.082       .  S
Cu8          N11   2.062       .  S
Cu9          N19   2.091       .  S
Cu10         N12   2.080       .  S
Cu10         N18   2.082       .  S
N11          N12   1.321       .  A
N11          C15   1.342       .  A
N12          C13   1.348       .  A
C13          C14   1.385       .  A
C13          H16   1.082       .  S
C14          C15   1.382       .  A
C14         C949   1.475       .  S
C15          H17   1.082       .  S
N18          N19   1.325       .  A
N18          C22   1.346       .  A
N19          C20   1.346       .  A
C20          C21   1.384       .  A
C20          H23   1.082       .  S
C21          C22   1.386       .  A
C21         C957   1.482       .  S
C22          H24   1.081       .  S
N25          N26   1.324       .  A
N25          C29   1.353       .  A
N25         Cu33   2.098       .  S
N26          C27   1.338       .  A
N26         Cu32   2.061       .  S
C27          C28   1.375       .  A
C27          H30   1.083       .  S
C28          C29   1.391       .  A
C28         C945   1.475       .  S
C29          H31   1.082       .  S
Cu32         N35   2.061       .  S
Cu33       N1003   2.098       .  S
Cu34         N36   2.084       .  S
Cu34         N42   2.087       .  S
N35         N996   1.319       .  A
N35          C39   1.344       .  A
N36         N995   1.320       .  A
N36          C37   1.351       .  A
C37          C38   1.389       .  A
C37          H40   1.082       .  S
C38         C999   1.377       .  A
C38         C941   1.472       .  S
C39         C998   1.385       .  A
C39          H41   1.082       .  S
N42          N43   1.326       .  A
N42          C46   1.347       .  A
N43          C44   1.347       .  A
N43        Cu993   2.095       .  S
C44          C45   1.384       .  A
C44          H47   1.082       .  S
C45          C46   1.386       .  A
C45         C958   1.482       .  S
C46          H48   1.081       .  S
N49          N50   1.321       .  A
N49          C53   1.349       .  A
N49         Cu57   2.076       .  S
N50          C51   1.342       .  A
N50         Cu56   2.073       .  S
C51          C52   1.387       .  A
C51          H54   1.081       .  S
C52          C53   1.385       .  A
C52         C946   1.483       .  S
C53          H55   1.082       .  S
Cu56         N59   2.073       .  S
Cu57         N67   2.078       .  S
Cu58         N60   2.085       .  S
Cu58         N66   2.086       .  S
N59          N60   1.322       .  A
N59          C63   1.344       .  A
N60          C61   1.349       .  A
C61          C62   1.388       .  A
C61          H64   1.082       .  S
C62          C63   1.381       .  A
C62         C933   1.478       .  S
C63          H65   1.082       .  S
N66          N67   1.324       .  A
N66          C70   1.347       .  A
N67          C68   1.345       .  A
C68          C69   1.381       .  A
C68          H71   1.082       .  S
C69          C70   1.387       .  A
C69         C937   1.480       .  S
C70          H72   1.082       .  S
N73          N74   1.321       .  A
N73          C77   1.350       .  A
N73         Cu81   2.084       .  S
N74          C75   1.340       .  A
N74         Cu80   2.066       .  S
C75          C76   1.386       .  A
C75          H78   1.082       .  S
C76          C77   1.387       .  A
C76         C929   1.485       .  S
C77          H79   1.081       .  S
Cu80         N83   2.066       .  S
Cu81         N91   2.085       .  S
Cu82         N84   2.079       .  S
Cu82         N90   2.080       .  S
N83          N84   1.321       .  A
N83          C87   1.344       .  A
N84          C85   1.347       .  A
C85          C86   1.384       .  A
C85          H88   1.082       .  S
C86          C87   1.383       .  A
C86         C925   1.475       .  S
C87          H89   1.082       .  S
N90          N91   1.324       .  A
N90          C94   1.346       .  A
N91          C92   1.346       .  A
C92          C93   1.383       .  A
C92          H95   1.081       .  S
C93          C94   1.386       .  A
C93         C938   1.480       .  S
C94          H96   1.082       .  S
N97        N1058   1.324       .  A
N97        C1061   1.354       .  A
N97        Cu105   2.098       .  S
N98        N1057   1.323       .  A
N98          C99   1.339   1_565  A
N98       Cu1064   2.062       .  S
C99         C100   1.376       .  A
C99         H102   1.082       .  S
C100        C101   1.390   1_545  A
C100        C930   1.475       .  S
C101       N1057   1.353       .  A
C101        H103   1.082       .  S
Cu104       N107   2.068       .  S
Cu104      N1058   2.070       .  S
Cu105       N115   2.099       .  S
Cu106       N108   2.066       .  S
Cu106       N114   2.067       .  S
N107        N108   1.320       .  A
N107        C111   1.345       .  A
N108        C109   1.344       .  A
C109        C110   1.382       .  A
C109        H112   1.081       .  S
C110        C111   1.386       .  A
C110        C917   1.473       .  S
C111        H113   1.082       .  S
N114        N115   1.323       .  A
N114        C118   1.343       .  A
N115        C116   1.349       .  A
C116        C117   1.388       .  A
C116        H119   1.082       .  S
C117        C118   1.384       .  A
C117        C921   1.484       .  S
C118        H120   1.081       .  S
N121        N122   1.320       .  A
N121        C125   1.355       .  A
N121       Cu129   2.096       .  S
N122        C123   1.337       .  A
N122       Cu128   2.050       .  S
C123        C124   1.376       .  A
C123        H126   1.082       .  S
C124        C125   1.393       .  A
C124        C913   1.476       .  S
C125        H127   1.082       .  S
Cu128       N131   2.051       .  S
Cu129       N139   2.099       .  S
Cu130       N132   2.085   1_455  S
Cu130       N138   2.088       .  S
N131        N132   1.319       .  A
N131        C135   1.338       .  A
N132        C133   1.351   1_655  A
C133        C134   1.389   1_455  A
C133        H136   1.082       .  S
C134        C135   1.382       .  A
C134        C909   1.481       .  S
C135        H137   1.082       .  S
N138        N139   1.327   1_455  A
N138        C142   1.347       .  A
N139        C140   1.346   1_655  A
C140        C141   1.383       .  A
C140        H143   1.082   1_455  S
C141        C142   1.385       .  A
C141        C922   1.481       .  S
C142        H144   1.081       .  S
N145        N146   1.321       .  A
N145        C149   1.351       .  A
N145       Cu153   2.086       .  S
N146        C147   1.340       .  A
N146       Cu152   2.067       .  S
C147        C148   1.388       .  A
C147        H150   1.081       .  S
C148        C149   1.389       .  A
C148        C914   1.489       .  S
C149        H151   1.082       .  S
Cu152       N155   2.066       .  S
Cu153       N163   2.087       .  S
Cu154       N156   2.085       .  S
Cu154       N162   2.086       .  S
N155        N156   1.322       .  A
N155        C159   1.344       .  A
N156        C157   1.347       .  A
C157        C158   1.387       .  A
C157        H160   1.082       .  S
C158        C159   1.380       .  A
C158        C902   1.476       .  S
C159        H161   1.082       .  S
N162        N163   1.324       .  A
N162        C166   1.348       .  A
N163        C164   1.345       .  A
C164        C165   1.383       .  A
C164        H167   1.082       .  S
C165        C166   1.388       .  A
C165       C1865   1.482       .  S
C166        H168   1.082       .  S
N169        N170   1.321       .  A
N169        C173   1.350       .  A
N169       Cu177   2.085       .  S
N170        C171   1.341       .  A
N170       Cu176   2.062       .  S
C171        C172   1.385       .  A
C171        H174   1.081       .  S
C172        C173   1.388       .  A
C172        C954   1.484       .  S
C173        H175   1.082       .  S
Cu176       N179   2.061       .  S
Cu177       N187   2.087       .  S
Cu178       N180   2.087       .  S
Cu178       N186   2.088       .  S
N179        N180   1.321       .  A
N179        C183   1.343       .  A
N180        C181   1.349       .  A
C181        C182   1.389       .  A
C181        H184   1.082       .  S
C182        C183   1.379       .  A
C182        C898   1.478       .  S
C183        H185   1.082       .  S
N186        N187   1.325       .  A
N186        C190   1.348       .  A
N187        C188   1.346       .  A
C188        C189   1.382       .  A
C188        H191   1.082       .  S
C189        C190   1.387       .  A
C189        C906   1.481       .  S
C190        H192   1.082       .  S
N193        N194   1.323       .  A
N193        C197   1.349       .  A
N193       Cu201   2.086       .  S
N194        C195   1.341       .  A
N194       Cu200   2.067       .  S
C195        C196   1.378       .  A
C195        H198   1.082       .  S
C196        C197   1.388       .  A
C196        C889   1.474       .  S
C197        H199   1.082       .  S
Cu200       N203   2.066       .  S
Cu201       N211   2.087       .  S
Cu202       N204   2.066       .  S
Cu202       N210   2.066       .  S
N203        N204   1.320       .  A
N203        C207   1.343       .  A
N204        C205   1.345       .  A
C205        C206   1.382       .  A
C205        H208   1.081       .  S
C206        C207   1.385       .  A
C206        C918   1.473       .  S
C207        H209   1.082       .  S
N210        N211   1.323       .  A
N210        C214   1.342       .  A
N211        C212   1.348       .  A
C212        C213   1.386       .  A
C212        H215   1.082       .  S
C213        C214   1.383       .  A
C213        C893   1.480       .  S
C214        H216   1.081       .  S
N217        N218   1.320       .  A
N217        C221   1.350       .  A
N217       Cu225   2.082       .  S
N218        C219   1.340       .  A
N218       Cu224   2.064       .  S
C219        C220   1.386       .  A
C219        H222   1.081       .  S
C220        C221   1.388       .  A
C220        C885   1.485       .  S
C221        H223   1.082       .  S
Cu224       N227   2.064       .  S
Cu225       N235   2.084       .  S
Cu226       N228   2.079       .  S
Cu226       N234   2.081       .  S
N227        N228   1.321       .  A
N227        C231   1.341       .  A
N228        C229   1.350       .  A
C229        C230   1.387       .  A
C229        H232   1.081       .  S
C230        C231   1.379       .  A
C230        C881   1.472       .  S
C231        H233   1.082       .  S
N234        N235   1.325       .  A
N234        C238   1.346   1_545  A
N235        C236   1.345       .  A
C236        C237   1.382   1_545  A
C236        H239   1.082       .  S
C237        C238   1.385       .  A
C237       C1854   1.477   1_655  S
C238        H240   1.082   1_655  S
N241        N242   1.322       .  A
N241        C245   1.353       .  A
N241       Cu249   2.098       .  S
N242        C243   1.339       .  A
N242       Cu248   2.058       .  S
C243        C244   1.376       .  A
C243        H246   1.082       .  S
C244        C245   1.391       .  A
C244        C886   1.476       .  S
C245        H247   1.082       .  S
Cu248       N251   2.057       .  S
Cu249       N259   2.100       .  S
Cu250       N252   2.082       .  S
Cu250       N258   2.084       .  S
N251        N252   1.320       .  A
N251        C255   1.343       .  A
N252        C253   1.347       .  A
C253        C254   1.386       .  A
C253        H256   1.082       .  S
C254        C255   1.383       .  A
C254        C873   1.477       .  S
C255        H257   1.082       .  S
N258        N259   1.325       .  A
N258        C262   1.346       .  A
N259        C260   1.350       .  A
C260        C261   1.387       .  A
C260        H263   1.082       .  S
C261        C262   1.386       .  A
C261        C877   1.488       .  S
C262        H264   1.081       .  S
N265        N266   1.321       .  A
N265       C1229   1.351       .  A
N265       Cu273   2.093       .  S
N266       C1227   1.343       .  A
N266       Cu272   2.072       .  S
C267       N1226   1.339       .  A
C267        C268   1.377       .  A
C267        H270   1.082       .  S
C268        C269   1.391       .  A
C268        C869   1.476   1_565  S
C269       N1225   1.351       .  A
C269        H271   1.082       .  S
Cu272       N275   2.072       .  S
Cu273       N283   2.095       .  S
Cu274       N276   2.086       .  S
Cu274       N282   2.087       .  S
N275        N276   1.322       .  A
N275        C279   1.344       .  A
N276        C277   1.348       .  A
C277        C278   1.388       .  A
C277        H280   1.081       .  S
C278        C279   1.381       .  A
C278        C897   1.479       .  S
C279        H281   1.082       .  S
N282        N283   1.325       .  A
N282        C286   1.349       .  A
N283        C284   1.346       .  A
C284        C285   1.384       .  A
C284        H287   1.082       .  S
C285        C286   1.387       .  A
C285        C878   1.485       .  S
C286        H288   1.081       .  S
N289        N290   1.322       .  A
N289        C293   1.348       .  A
N289       Cu297   2.078       .  S
N290        C291   1.343       .  A
N290       Cu296   2.076       .  S
C291        C292   1.387       .  A
C291        H294   1.081       .  S
C292        C293   1.384       .  A
C292        C870   1.483       .  S
C293        H295   1.082       .  S
Cu296       N299   2.074       .  S
Cu297       N307   2.078       .  S
Cu298       N300   2.068       .  S
Cu298       N306   2.068       .  S
N299        N300   1.321       .  A
N299        C303   1.345       .  A
N300        C301   1.345       .  A
C301        C302   1.382       .  A
C301        H304   1.082       .  S
C302        C303   1.385       .  A
C302        C950   1.473       .  S
C303        H305   1.082       .  S
N306        N307   1.322       .  A
N306        C310   1.343       .  A
N307        C308   1.346       .  A
C308        C309   1.384       .  A
C308        H311   1.081       .  S
C309        C310   1.385       .  A
C309        C865   1.478       .  S
C310        H312   1.081       .  S
N313        N314   1.320       .  A
N313        C317   1.352       .  A
N313       Cu321   2.084       .  S
N314        C315   1.339       .  A
N314       Cu320   2.057       .  S
C315        C316   1.378       .  A
C315        H318   1.082       .  S
C316        C317   1.391       .  A
C316        C861   1.476       .  S
C317        H319   1.082       .  S
Cu320       N323   2.057       .  S
Cu321       N331   2.087       .  S
Cu322       N324   2.079       .  S
Cu322       N330   2.082       .  S
N323        N324   1.320       .  A
N323        C327   1.338       .  A
N324        C325   1.351       .  A
C325        C326   1.390       .  A
C325        H328   1.082       .  S
C326        C327   1.377       .  A
C326        C857   1.473       .  S
C327        H329   1.082       .  S
N330        N331   1.326       .  A
N330        C334   1.345       .  A
N331        C332   1.345       .  A
C332        C333   1.381       .  A
C332        H335   1.081       .  S
C333        C334   1.384       .  A
C333        C866   1.477       .  S
C334        H336   1.081       .  S
N337        N338   1.321       .  A
N337        C341   1.351       .  A
N337       Cu345   2.092       .  S
N338        C339   1.340       .  A
N338       Cu344   2.064       .  S
C339        C340   1.385       .  A
C339        H342   1.081       .  S
C340        C341   1.389       .  A
C340        C862   1.486       .  S
C341        H343   1.082       .  S
Cu344       N347   2.064       .  S
Cu345      N1315   2.094       .  S
Cu346       N348   2.085       .  S
Cu346       N354   2.087       .  S
N347       N1308   1.320       .  A
N347        C351   1.343       .  A
N348       N1307   1.320       .  A
N348        C349   1.350       .  A
C349        C350   1.387       .  A
C349        H352   1.082       .  S
C350       C1311   1.381       .  A
C350        C849   1.477       .  S
C351       C1310   1.380       .  A
C351        H353   1.082       .  S
N354        N355   1.326       .  A
N354        C358   1.346       .  A
N355        C356   1.348       .  A
N355      Cu1305   2.093       .  S
C356        C357   1.384       .  A
C356        H359   1.082       .  S
C357        C358   1.386       .  A
C357        C853   1.484       .  S
C358        H360   1.081       .  S
N361        N362   1.321       .  A
N361        C365   1.349       .  A
N361       Cu369   2.082       .  S
N362        C363   1.341       .  A
N362       Cu368   2.063       .  S
C363        C364   1.384       .  A
C363        H366   1.082       .  S
C364        C365   1.385       .  A
C364        C890   1.480       .  S
C365        H367   1.082       .  S
Cu368       N371   2.062       .  S
Cu369       N379   2.083       .  S
Cu370       N372   2.085       .  S
Cu370       N378   2.086       .  S
N371        N372   1.322       .  A
N371        C375   1.343       .  A
N372        C373   1.347       .  A
C373        C374   1.385       .  A
C373        H376   1.082       .  S
C374        C375   1.382       .  A
C374        C926   1.475       .  S
C375        H377   1.082       .  S
N378        N379   1.324       .  A
N378        C382   1.348       .  A
N379        C380   1.345       .  A
C380        C381   1.383       .  A
C380        H383   1.082       .  S
C381        C382   1.387       .  A
C381        C854   1.481       .  S
C382        H384   1.081       .  S
N385        N386   1.320       .  A
N385        C389   1.353       .  A
N385       Cu393   2.089       .  S
N386        C387   1.337       .  A
N386       Cu392   2.049       .  S
C387        C388   1.375       .  A
C387        H390   1.082       .  S
C388        C389   1.391       .  A
C388        C841   1.472       .  S
C389        H391   1.082       .  S
Cu392       N395   2.049       .  S
Cu393       N403   2.092       .  S
Cu394       N396   2.083       .  S
Cu394       N402   2.086       .  S
N395        N396   1.319       .  A
N395        C399   1.339       .  A
N396        C397   1.350       .  A
C397        C398   1.388       .  A
C397        H400   1.082       .  S
C398        C399   1.381       .  A
C398        C837   1.478       .  S
C399        H401   1.082       .  S
N402        N403   1.326       .  A
N402        C406   1.345       .  A
N403        C404   1.347       .  A
C404        C405   1.387       .  A
C404        H407   1.081       .  S
C405        C406   1.381       .  A
C405        C845   1.480       .  S
C406        H408   1.081       .  S
N409        N410   1.321       .  A
N409        C413   1.355       .  A
N409       Cu417   2.097       .  S
N410        C411   1.338       .  A
N410       Cu416   2.057       .  S
C411        C412   1.377       .  A
C411        H414   1.083       .  S
C412        C413   1.393       .  A
C412        C833   1.477       .  S
C413        H415   1.082       .  S
Cu416       N419   2.058       .  S
Cu417       N427   2.100       .  S
Cu418       N420   2.079       .  S
Cu418       N426   2.082       .  S
N419        N420   1.319       .  A
N419        C423   1.341       .  A
N420        C421   1.349       .  A
C421        C422   1.388       .  A
C421        H424   1.082       .  S
C422        C423   1.379       .  A
C422        C850   1.472       .  S
C423        H425   1.082       .  S
N426        N427   1.326       .  A
N426        C430   1.345   1_545  A
N427        C428   1.349       .  A
C428        C429   1.389   1_545  A
C428        H431   1.081       .  S
C429        C430   1.380       .  A
C429       C1806   1.483       .  S
C430        H432   1.082       .  S
N433       N1394   1.322       .  A
N433       C1397   1.354       .  A
N433       Cu441   2.099       .  S
N434       N1393   1.322       .  A
N434        C435   1.342       .  A
N434      Cu1400   2.065       .  S
C435        C436   1.384       .  A
C435        H438   1.082       .  S
C436        C437   1.388       .  A
C436        C825   1.485       .  S
C437       N1393   1.351       .  A
C437        H439   1.082       .  S
Cu440       N443   2.064       .  S
Cu440      N1394   2.063       .  S
Cu441       N451   2.102       .  S
Cu442       N444   2.077       .  S
Cu442       N450   2.080       .  S
N443        N444   1.320       .  A
N443        C447   1.342       .  A
N444        C445   1.349       .  A
C445        C446   1.388       .  A
C445        H448   1.081       .  S
C446        C447   1.380       .  A
C446        C821   1.474       .  S
C447        H449   1.081       .  S
N450        N451   1.325       .  A
N450        C454   1.346       .  A
N451        C452   1.348       .  A
C452        C453   1.386       .  A
C452        H455   1.082       .  S
C453        C454   1.385       .  A
C453        C830   1.485       .  S
C454        H456   1.081       .  S
N457        N458   1.321       .  A
N457        C461   1.353       .  A
N457       Cu465   2.098       .  S
N458        C459   1.339       .  A
N458       Cu464   2.056       .  S
C459        C460   1.383       .  A
C459        H462   1.081       .  S
C460        C461   1.391       .  A
C460        C834   1.486       .  S
C461        H463   1.082       .  S
Cu464       N467   2.056       .  S
Cu465       N475   2.101       .  S
Cu466       N468   2.083       .  S
Cu466       N474   2.086       .  S
N467        N468   1.319       .  A
N467        C471   1.339       .  A
N468        C469   1.350       .  A
C469        C470   1.389       .  A
C469        H472   1.082       .  S
C470        C471   1.386       .  A
C470        C858   1.485       .  S
C471        H473   1.081       .  S
N474        N475   1.326       .  A
N474        C478   1.346       .  A
N475        C476   1.348       .  A
C476        C477   1.385       .  A
C476        H479   1.082       .  S
C477        C478   1.385       .  A
C477        C829   1.484       .  S
C478        H480   1.081       .  S
N481        N482   1.319       .  A
N481        C485   1.352       .  A
N481       Cu489   2.095       .  S
N482        C483   1.338       .  A
N482       Cu488   2.051       .  S
C483        C484   1.385       .  A
C483        H486   1.080       .  S
C484        C485   1.392       .  A
C484        C813   1.488       .  S
C485        H487   1.081       .  S
Cu488       N491   2.050       .  S
Cu489      N1459   2.098       .  S
Cu490       N492   2.090   1_445  S
Cu490       N498   2.093       .  S
N491       N1452   1.320       .  A
N491        C495   1.339       .  A
N492       N1451   1.320       .  A
N492        C493   1.352   1_565  A
C493        C494   1.389       .  A
C493        H496   1.082   1_655  S
C494       C1455   1.381   1_545  A
C494        C882   1.481       .  S
C495       C1454   1.376       .  A
C495        H497   1.082       .  S
N498        N499   1.327   1_455  A
N498        C502   1.348       .  A
N499        C500   1.345   1_655  A
N499      Cu1449   2.091   1_545  S
C500        C501   1.381       .  A
C500        H503   1.082   1_455  S
C501        C502   1.387       .  A
C501        C817   1.481       .  S
C502        H504   1.081       .  S
N505        N506   1.321       .  A
N505        C509   1.351       .  A
N505       Cu513   2.083       .  S
N506        C507   1.339       .  A
N506       Cu512   2.066       .  S
C507        C508   1.384       .  A
C507        H510   1.081       .  S
C508        C509   1.387       .  A
C508        C842   1.483       .  S
C509        H511   1.082       .  S
Cu512       N515   2.066       .  S
Cu513       N523   2.085       .  S
Cu514       N516   2.087       .  S
Cu514       N522   2.089       .  S
N515        N516   1.320       .  A
N515        C519   1.344       .  A
N516        C517   1.350       .  A
C517        C518   1.390       .  A
C517        H520   1.082       .  S
C518        C519   1.381       .  A
C518        C810   1.480       .  S
C519        H521   1.082       .  S
N522        N523   1.325       .  A
N522        C526   1.346       .  A
N523        C524   1.347       .  A
C524        C525   1.383       .  A
C524        H527   1.082       .  S
C525        C526   1.387       .  A
C525        C818   1.483       .  S
C526        H528   1.081       .  S
N529        N530   1.322       .  A
N529        C533   1.352       .  A
N529       Cu537   2.091       .  S
N530        C531   1.339       .  A
N530       Cu536   2.065       .  S
C531        C532   1.378       .  A
C531        H534   1.082       .  S
C532        C533   1.390       .  A
C532        C814   1.476       .  S
C533        H535   1.082       .  S
Cu536       N539   2.064       .  S
Cu537       N547   2.093       .  S
Cu538       N540   2.078       .  S
Cu538       N546   2.079       .  S
N539        N540   1.320       .  A
N539        C543   1.343       .  A
N540        C541   1.347       .  A
C541        C542   1.385       .  A
C541        H544   1.082       .  S
C542        C543   1.384       .  A
C542        C874   1.477       .  S
C543        H545   1.081       .  S
N546        N547   1.324       .  A
N546        C550   1.345       .  A
N547        C548   1.348       .  A
C548        C549   1.386       .  A
C548        H551   1.082       .  S
C549        C550   1.385       .  A
C549        C805   1.484       .  S
C550        H552   1.081       .  S
N553        N554   1.322       .  A
N553        C557   1.352       .  A
N553       Cu561   2.091       .  S
N554        C555   1.341       .  A
N554       Cu560   2.070       .  S
C555        C556   1.379       .  A
C555        H558   1.082       .  S
C556        C557   1.390       .  A
C556        C826   1.479       .  S
C557        H559   1.082       .  S
Cu560       N563   2.070       .  S
Cu561       N571   2.092       .  S
Cu562       N564   2.083       .  S
Cu562       N570   2.083       .  S
N563        N564   1.321       .  A
N563        C567   1.346       .  A
N564        C565   1.347       .  A
C565        C566   1.385       .  A
C565        H568   1.081       .  S
C566        C567   1.385       .  A
C566        C801   1.479       .  S
C567        H569   1.082       .  S
N570        N571   1.325       .  A
N570        C574   1.347       .  A
N571        C572   1.346       .  A
C572        C573   1.384       .  A
C572        H575   1.082       .  S
C573        C574   1.386       .  A
C573        C806   1.482       .  S
C574        H576   1.082       .  S
N577        N578   1.321       .  A
N577        C581   1.354       .  A
N577       Cu585   2.100       .  S
N578        C579   1.338       .  A
N578       Cu584   2.057       .  S
C579        C580   1.382       .  A
C579        H582   1.081       .  S
C580        C581   1.391       .  A
C580        C793   1.486       .  S
C581        H583   1.082       .  S
Cu584       N587   2.058       .  S
Cu585       N595   2.102       .  S
Cu586       N588   2.079       .  S
Cu586       N594   2.081       .  S
N587        N588   1.319       .  A
N587        C591   1.342       .  A
N588        C589   1.348       .  A
C589        C590   1.386       .  A
C589        H592   1.082       .  S
C590        C591   1.384       .  A
C590        C822   1.480       .  S
C591        H593   1.082       .  S
N594        N595   1.326       .  A
N594        C598   1.346       .  A
N595        C596   1.348       .  A
C596        C597   1.390       .  A
C596        H599   1.082       .  S
C597        C598   1.381       .  A
C597        C797   1.485       .  S
C598        H600   1.083       .  S
N601        N602   1.321       .  A
N601        C605   1.355       .  A
N601       Cu609   2.095       .  S
N602        C603   1.337       .  A
N602       Cu608   2.055       .  S
C603        C604   1.376       .  A
C603        H606   1.083       .  S
C604        C605   1.392       .  A
C604        C789   1.476       .  S
C605        H607   1.082       .  S
Cu608       N611   2.056       .  S
Cu609       N619   2.097       .  S
Cu610       N612   2.079       .  S
Cu610       N618   2.082       .  S
N611        N612   1.319       .  A
N611        C615   1.340       .  A
N612        C613   1.349       .  A
C613        C614   1.387       .  A
C613        H616   1.082       .  S
C614        C615   1.384       .  A
C614        C942   1.480       .  S
C615        H617   1.082       .  S
N618        N619   1.326       .  A
N618        C622   1.346       .  A
N619        C620   1.347       .  A
C620        C621   1.387       .  A
C620        H623   1.081       .  S
C621        C622   1.381       .  A
C621       C1758   1.480   1_545  S
C622        H624   1.081   1_545  S
N625        N626   1.321       .  A
N625        C629   1.351       .  A
N625       Cu633   2.087       .  S
N626        C627   1.341       .  A
N626       Cu632   2.072       .  S
C627        C628   1.386       .  A
C627        H630   1.081       .  S
C628        C629   1.388       .  A
C628        C790   1.487       .  S
C629        H631   1.082       .  S
Cu632       N635   2.072       .  S
Cu633       N643   2.089       .  S
Cu634       N636   2.083       .  S
Cu634       N642   2.083       .  S
N635        N636   1.321       .  A
N635        C639   1.345       .  A
N636        C637   1.348       .  A
C637        C638   1.388       .  A
C637        H640   1.082       .  S
C638        C639   1.381       .  A
C638        C934   1.478       .  S
C639        H641   1.082       .  S
N642        N643   1.325       .  A
N642        C646   1.346       .  A
N643        C644   1.347       .  A
C644        C645   1.384       .  A
C644        H647   1.082   1_554  S
C645        C646   1.386       .  A
C645        C786   1.482   1_554  S
C646        H648   1.081       .  S
N649        N650   1.320       .  A
N649       C1613   1.353       .  A
N649       Cu657   2.100       .  S
N650       C1611   1.340       .  A
N650       Cu656   2.059       .  S
C651       N1610   1.338       .  A
C651        C652   1.384       .  A
C651        H654   1.081       .  S
C652        C653   1.397       .  A
C652        C781   1.495   1_565  S
C653       N1609   1.357       .  A
C653        H655   1.082   1_565  S
Cu656       N659   2.060       .  S
Cu657       N667   2.102       .  S
Cu658       N660   2.075       .  S
Cu658       N666   2.077       .  S
N659        N660   1.320       .  A
N659        C663   1.340       .  A
N660        C661   1.349       .  A
C661        C662   1.387       .  A
C661        H664   1.082       .  S
C662        C663   1.379       .  A
C662        C838   1.471       .  S
C663        H665   1.082       .  S
N666        N667   1.326       .  A
N666        C670   1.345       .  A
N667        C668   1.348       .  A
C668        C669   1.386       .  A
C668        H671   1.082   1_556  S
C669        C670   1.384       .  A
C669        C785   1.483   1_556  S
C670        H672   1.081       .  S
N673        N674   1.320       .  A
N673        C677   1.354       .  A
N673       Cu681   2.099       .  S
N674        C675   1.337       .  A
N674       Cu680   2.049       .  S
C675        C676   1.381       .  A
C675        H678   1.081       .  S
C676        C677   1.392       .  A
C676        C773   1.485       .  S
C677        H679   1.082       .  S
Cu680       N683   2.049       .  S
Cu681       N691   2.103       .  S
Cu682       N684   2.083       .  S
Cu682       N690   2.086   1_655  S
N683        N684   1.319       .  A
N683        C687   1.338       .  A
N684        C685   1.352       .  A
C685        C686   1.390       .  A
C685        H688   1.082   1_655  S
C686        C687   1.377       .  A
C686        C910   1.472       .  S
C687        H689   1.082       .  S
N690        N691   1.327   1_455  A
N690        C694   1.345       .  A
N691        C692   1.350       .  A
C692        C693   1.389   1_655  A
C692        H695   1.081   1_554  S
C693        C694   1.379       .  A
C693        C777   1.482   1_554  S
C694        H696   1.080       .  S
N697        N698   1.323       .  A
N697        C701   1.355       .  A
N697       Cu705   2.095       .  S
N698        C699   1.341       .  A
N698       Cu704   2.078       .  S
C699        C700   1.381       .  A
C699        H702   1.082       .  S
C700        C701   1.391       .  A
C700        C782   1.483       .  S
C701        H703   1.082       .  S
Cu704       N707   2.077       .  S
Cu705       N715   2.096       .  S
Cu706       N708   2.080       .  S
Cu706       N714   2.081       .  S
N707        N708   1.321       .  A
N707        C711   1.346       .  A
N708        C709   1.348       .  A
C709        C710   1.388       .  A
C709        H712   1.082       .  S
C710        C711   1.383       .  A
C710        C809   1.482       .  S
C711        H713   1.082       .  S
N714        N715   1.325       .  A
N714        C718   1.346       .  A
N715        C716   1.348       .  A
C716        C717   1.389       .  A
C716        H719   1.081       .  S
C717        C718   1.382       .  A
C717        C778   1.483       .  S
C718        H720   1.080       .  S
N721        N722   1.323       .  A
N721        C725   1.352       .  A
N721       Cu729   2.090       .  S
N722        C723   1.340       .  A
N722       Cu728   2.068       .  S
C723        C724   1.379       .  A
C723        H726   1.083       .  S
C724        C725   1.389       .  A
C724        C774   1.477       .  S
C725        H727   1.082       .  S
Cu728       N731   2.066       .  S
Cu729      N1699   2.092       .  S
Cu730       N732   2.080       .  S
Cu730       N738   2.082       .  S
N731       N1692   1.320       .  A
N731        C735   1.344       .  A
N732       N1691   1.321       .  A
N732        C733   1.348       .  A
C733        C734   1.388       .  A
C733        H736   1.082       .  S
C734       C1695   1.380       .  A
C734        C901   1.476       .  S
C735       C1694   1.384       .  A
C735        H737   1.082       .  S
N738        N739   1.325       .  A
N738        C742   1.347       .  A
N739        C740   1.347       .  A
N739      Cu1689   2.092       .  S
C740        C741   1.384       .  A
C740        H743   1.082       .  S
C741        C742   1.386       .  A
C741        C769   1.483       .  S
C742        H744   1.081       .  S
N745        N746   1.322       .  A
N745        C749   1.353       .  A
N745       Cu753   2.090       .  S
N746        C747   1.339       .  A
N746       Cu752   2.063       .  S
C747        C748   1.378       .  A
C747        H750   1.083       .  S
C748        C749   1.390       .  A
C748        C794   1.476       .  S
C749        H751   1.082       .  S
Cu752       N755   2.063       .  S
Cu753       N763   2.093       .  S
Cu754       N756   2.087       .  S
Cu754       N762   2.088       .  S
N755        N756   1.320       .  A
N755        C759   1.343       .  A
N756        C757   1.349       .  A
C757        C758   1.388       .  A
C757        H760   1.082       .  S
C758        C759   1.383       .  A
C758        C802   1.480       .  S
C759        H761   1.082       .  S
N762        N763   1.325       .  A
N762        C766   1.347       .  A
N763        C764   1.347       .  A
C764        C765   1.384       .  A
C764        H767   1.082   1_556  S
C765        C766   1.386       .  A
C765        C770   1.483   1_556  S
C766        H768   1.081       .  S
C769        C770   1.347       .  D
C769        H771   1.085   1_554  S
C770        H772   1.085       .  S
C773        C774   1.347       .  D
C773        H775   1.086       .  S
C774        H776   1.086       .  S
C777        C778   1.344       .  D
C777        H779   1.083   1_556  S
C778        H780   1.084       .  S
C781        C782   1.351       .  D
C781        H783   1.085       .  S
C782        H784   1.084   1_545  S
C785        C786   1.347   1_554  D
C785        H787   1.085       .  S
C786        H788   1.085       .  S
C789        C790   1.344       .  D
C789        H791   1.086       .  S
C790        H792   1.086       .  S
C793        C794   1.346       .  D
C793        H795   1.086       .  S
C794        H796   1.087       .  S
C797        C798   1.342   1_556  D
C797        H799   1.087       .  S
C798       C1581   1.481       .  S
C798        H800   1.087       .  S
C801        C802   1.346       .  D
C801        H803   1.086       .  S
C802        H804   1.086       .  S
C805        C806   1.347       .  D
C805        H807   1.084       .  S
C806        H808   1.084       .  S
C809        C810   1.344       .  D
C809        H811   1.086       .  S
C810        H812   1.086       .  S
C813        C814   1.347       .  D
C813        H815   1.085       .  S
C814        H816   1.083       .  S
C817        C818   1.345       .  D
C817        H819   1.085       .  S
C818        H820   1.086       .  S
C821        C822   1.344       .  D
C821        H823   1.085       .  S
C822        H824   1.086       .  S
C825        C826   1.345   1_565  D
C825        H827   1.085   1_565  S
C826        H828   1.086   1_545  S
C829        C830   1.348       .  D
C829        H831   1.085       .  S
C830        H832   1.085       .  S
C833        C834   1.345       .  D
C833        H835   1.087       .  S
C834        H836   1.086       .  S
C837        C838   1.344       .  D
C837        H839   1.086       .  S
C838        H840   1.086       .  S
C841        C842   1.343       .  D
C841        H843   1.085       .  S
C842        H844   1.085       .  S
C845        C846   1.343       .  D
C845        H847   1.084       .  S
C846       C1389   1.479       .  S
C846        H848   1.084       .  S
C849        C850   1.342       .  D
C849        H851   1.086       .  S
C850        H852   1.087       .  S
C853        C854   1.346       .  D
C853        H855   1.086       .  S
C854        H856   1.085       .  S
C857        C858   1.344       .  D
C857        H859   1.084       .  S
C858        H860   1.086       .  S
C861        C862   1.345       .  D
C861        H863   1.084       .  S
C862        H864   1.085       .  S
C865        C866   1.345       .  D
C865        H867   1.084       .  S
C866        H868   1.084       .  S
C869        C870   1.343       .  D
C869        H871   1.085   1_545  S
C870        H872   1.085       .  S
C873        C874   1.345       .  D
C873        H875   1.086       .  S
C874        H876   1.086       .  S
C877        C878   1.348       .  D
C877        H879   1.085       .  S
C878        H880   1.085       .  S
C881        C882   1.345       .  D
C881        H883   1.087       .  S
C882        H884   1.086       .  S
C885        C886   1.344       .  D
C885        H887   1.085       .  S
C886        H888   1.085       .  S
C889        C890   1.344       .  D
C889        H891   1.086       .  S
C890        H892   1.085       .  S
C893        C894   1.347       .  D
C893        H895   1.085       .  S
C894       C1197   1.477       .  S
C894        H896   1.084       .  S
C897        C898   1.342       .  D
C897        H899   1.086       .  S
C898        H900   1.086       .  S
C901        C902   1.341       .  D
C901       H1863   1.087       .  S
C902        H904   1.086       .  S
H903       C1861   1.087       .  S
C905       C1125   1.482       .  S
C905        C906   1.346       .  D
C905       H1867   1.085       .  S
C906        H908   1.085       .  S
H907       C1865   1.085       .  S
C909        C910   1.343       .  D
C909        H911   1.086   1_655  S
C910        H912   1.086       .  S
C913        C914   1.345       .  D
C913        H915   1.083       .  S
C914        H916   1.085       .  S
C917        C918   1.341       .  D
C917        H919   1.086       .  S
C918        H920   1.085       .  S
C921        C922   1.348       .  D
C921        H923   1.086       .  S
C922        H924   1.085       .  S
C925        C926   1.344       .  D
C925        H927   1.086       .  S
C926        H928   1.086       .  S
C929        C930   1.344       .  D
C929        H931   1.085       .  S
C930        H932   1.084       .  S
C933        C934   1.342       .  D
C933        H935   1.087       .  S
C934        H936   1.086       .  S
C937        C938   1.345       .  D
C937        H939   1.084       .  S
C938        H940   1.084       .  S
C941        C942   1.343       .  D
C941        H943   1.086       .  S
C942        H944   1.086       .  S
C945        C946   1.342       .  D
C945        H947   1.086       .  S
C946        H948   1.086       .  S
C949        C950   1.342       .  D
C949        H951   1.087       .  S
C950        H952   1.086       .  S
C953        C954   1.345       .  D
C953        H955   1.085       .  S
C954        H956   1.086       .  S
C957        C958   1.346       .  D
C957        H959   1.085       .  S
C958        H960   1.085       .  S
N961        N962   1.321       .  A
N961        C965   1.350       .  A
N961       Cu969   2.086       .  S
N962        C963   1.342       .  A
N962       Cu968   2.068       .  S
C963        C964   1.385       .  A
C963        H966   1.082       .  S
C964        C965   1.387       .  A
C964       C1913   1.484       .  S
C965        H967   1.082       .  S
Cu968       N971   2.067       .  S
Cu969       N979   2.087       .  S
Cu970       N972   2.075       .  S
Cu970       N978   2.076       .  S
N971        N972   1.322       .  A
N971        C975   1.344       .  A
N972        C973   1.346       .  A
C973        C974   1.383       .  A
C973        H976   1.082       .  S
C974        C975   1.383       .  A
C974       C1909   1.472       .  S
C975        H977   1.082       .  S
N978        N979   1.324       .  A
N978        C982   1.347       .  A
N979        C980   1.345       .  A
C980        C981   1.383       .  A
C980        H983   1.082       .  S
C981        C982   1.385       .  A
C981       C1917   1.479       .  S
C982        H984   1.081       .  S
N985        N986   1.321   1_565  A
N985        C989   1.353       .  A
N985       Cu993   2.092   1_565  S
N986        C987   1.338   1_545  A
N986       Cu992   2.054       .  S
C987        C988   1.376       .  A
C987        H990   1.082       .  S
C988        C989   1.392       .  A
C988       C1905   1.476       .  S
C989        H991   1.082       .  S
Cu992       N995   2.054       .  S
Cu994       N996   2.064       .  S
Cu994      N1002   2.066       .  S
N995        C999   1.340       .  A
N996        C997   1.344       .  A
C997        C998   1.382       .  A
C997       H1000   1.082       .  S
C998       C1901   1.474       .  S
C999       H1001   1.082       .  S
N1002      N1003   1.324       .  A
N1002      C1006   1.342       .  A
N1003      C1004   1.350       .  A
C1004      C1005   1.388       .  A
C1004      H1007   1.082       .  S
C1005      C1006   1.383       .  A
C1005      C1918   1.483       .  S
C1006      H1008   1.081       .  S
N1009      N1010   1.322       .  A
N1009      C1013   1.350       .  A
N1009     Cu1017   2.088       .  S
N1010      C1011   1.341       .  A
N1010     Cu1016   2.073       .  S
C1011      C1012   1.387       .  A
C1011      H1014   1.081       .  S
C1012      C1013   1.388       .  A
C1012      C1906   1.487       .  S
C1013      H1015   1.082       .  S
Cu1016     N1019   2.072       .  S
Cu1017     N1027   2.089       .  S
Cu1018     N1020   2.080       .  S
Cu1018     N1026   2.081       .  S
N1019      N1020   1.321       .  A
N1019      C1023   1.346       .  A
N1020      C1021   1.346       .  A
C1021      C1022   1.387       .  A
C1021      H1024   1.081       .  S
C1022      C1023   1.383       .  A
C1022      C1893   1.480       .  S
C1023      H1025   1.082       .  S
N1026      N1027   1.324       .  A
N1026      C1030   1.345       .  A
N1027      C1028   1.349       .  A
C1028      C1029   1.389       .  A
C1028      H1031   1.081       .  S
C1029      C1030   1.382       .  A
C1029      C1897   1.483       .  S
C1030      H1032   1.080       .  S
N1033      N1034   1.320       .  A
N1033      C1037   1.354       .  A
N1033     Cu1041   2.103       .  S
N1034      C1035   1.338       .  A
N1034     Cu1040   2.050       .  S
C1035      C1036   1.382       .  A
C1035      H1038   1.081       .  S
C1036      C1037   1.393       .  A
C1036      C1889   1.488       .  S
C1037      H1039   1.082       .  S
Cu1040     N1043   2.050       .  S
Cu1041     N1051   2.105       .  S
Cu1042     N1044   2.079       .  S
Cu1042     N1050   2.082       .  S
N1043      N1044   1.319       .  A
N1043      C1047   1.339       .  A
N1044      C1045   1.350       .  A
C1045      C1046   1.387       .  A
C1045      H1048   1.082       .  S
C1046      C1047   1.382       .  A
C1046      C1885   1.477       .  S
C1047      H1049   1.081       .  S
N1050      N1051   1.327       .  A
N1050      C1054   1.345       .  A
N1051      C1052   1.349       .  A
C1052      C1053   1.389       .  A
C1052      H1055   1.081       .  S
C1053      C1054   1.380       .  A
C1053      C1898   1.483       .  S
C1054      H1056   1.081       .  S
N1057     Cu1065   2.094       .  S
N1058      C1059   1.340       .  A
C1059      C1060   1.378       .  A
C1059      H1062   1.083       .  S
C1060      C1061   1.390       .  A
C1060      C1890   1.478       .  S
C1061      H1063   1.082       .  S
Cu1064     N1067   2.062       .  S
Cu1065     N1075   2.096       .  S
Cu1066     N1068   2.072       .  S
Cu1066     N1074   2.074       .  S
N1067      N1068   1.320       .  A
N1067      C1071   1.344       .  A
N1068      C1069   1.345       .  A
C1069      C1070   1.382       .  A
C1069      H1072   1.081       .  S
C1070      C1071   1.384       .  A
C1070      C1877   1.471       .  S
C1071      H1073   1.083       .  S
N1074      N1075   1.324       .  A
N1074      C1078   1.345       .  A
N1075      C1076   1.348       .  A
C1076      C1077   1.386       .  A
C1076      H1079   1.082       .  S
C1077      C1078   1.385       .  A
C1077      C1881   1.483       .  S
C1078      H1080   1.081       .  S
N1081      N1082   1.322       .  A
N1081      C1085   1.351       .  A
N1081     Cu1089   2.090       .  S
N1082      C1083   1.340       .  A
N1082     Cu1088   2.062       .  S
C1083      C1084   1.378       .  A
C1083      H1086   1.082       .  S
C1084      C1085   1.390       .  A
C1084      C1873   1.476       .  S
C1085      H1087   1.082       .  S
Cu1088     N1091   2.061       .  S
Cu1089     N1099   2.092       .  S
Cu1090     N1092   2.075       .  S
Cu1090     N1098   2.076       .  S
N1091      N1092   1.321       .  A
N1091      C1095   1.343       .  A
N1092      C1093   1.346   1_655  A
C1093      C1094   1.387       .  A
C1093      H1096   1.082       .  S
C1094      C1095   1.380   1_455  A
C1094      C1869   1.475       .  S
C1095      H1097   1.082       .  S
N1098      N1099   1.324       .  A
N1098      C1102   1.346   1_655  A
N1099      C1100   1.347       .  A
C1100      C1101   1.385   1_655  A
C1100      H1103   1.082       .  S
C1101      C1102   1.385       .  A
C1101      C1882   1.482       .  S
C1102      H1104   1.081       .  S
N1105      N1106   1.321       .  A
N1105      C1109   1.349       .  A
N1105     Cu1113   2.086       .  S
N1106      C1107   1.342       .  A
N1106     Cu1112   2.066       .  S
C1107      C1108   1.385       .  A
C1107      H1110   1.082       .  S
C1108      C1109   1.387       .  A
C1108      C1874   1.483       .  S
C1109      H1111   1.082       .  S
Cu1112     N1115   2.065       .  S
Cu1113     N1123   2.087       .  S
Cu1114     N1116   2.078       .  S
Cu1114     N1122   2.080       .  S
N1115      N1116   1.321       .  A
N1115      C1119   1.343       .  A
N1116      C1117   1.347       .  A
C1117      C1118   1.384       .  A
C1117      H1120   1.082       .  S
C1118      C1119   1.382       .  A
C1118      C1862   1.474       .  S
C1119      H1121   1.082       .  S
N1122      N1123   1.324       .  A
N1122      C1126   1.346       .  A
N1123      C1124   1.346       .  A
C1124      C1125   1.384       .  A
C1124      H1127   1.082       .  S
C1125      C1126   1.386       .  A
C1126      H1128   1.082       .  S
N1129      N1130   1.321       .  A
N1129      C1133   1.353       .  A
N1129     Cu1137   2.095       .  S
N1130      C1131   1.339       .  A
N1130     Cu1136   2.058       .  S
C1131      C1132   1.377       .  A
C1131      H1134   1.083       .  S
C1132      C1133   1.391       .  A
C1132      C1914   1.476       .  S
C1133      H1135   1.082       .  S
Cu1136     N1139   2.058       .  S
Cu1137     N1147   2.097       .  S
Cu1138     N1140   2.086       .  S
Cu1138     N1146   2.089       .  S
N1139      N1140   1.320       .  A
N1139      C1143   1.340       .  A
N1140      C1141   1.350       .  A
C1141      C1142   1.388       .  A
C1141      H1144   1.082       .  S
C1142      C1143   1.384       .  A
C1142      C1858   1.483       .  S
C1143      H1145   1.082       .  S
N1146      N1147   1.326       .  A
N1146      C1150   1.347       .  A
N1147      C1148   1.347       .  A
C1148      C1149   1.384       .  A
C1148      H1151   1.082       .  S
C1149      C1150   1.386       .  A
C1149      C1866   1.484       .  S
C1150      H1152   1.082       .  S
N1153      N1154   1.322       .  A
N1153      C1157   1.353       .  A
N1153     Cu1161   2.093       .  S
N1154      C1155   1.339       .  A
N1154     Cu1160   2.064       .  S
C1155      C1156   1.378       .  A
C1155      H1158   1.083       .  S
C1156      C1157   1.390       .  A
C1156      C1849   1.477       .  S
C1157      H1159   1.082       .  S
Cu1160     N1163   2.063       .  S
Cu1161     N1171   2.095       .  S
Cu1162     N1164   2.067       .  S
Cu1162     N1170   2.069       .  S
N1163      N1164   1.319       .  A
N1163      C1167   1.342       .  A
N1164      C1165   1.347       .  A
C1165      C1166   1.384       .  A
C1165      H1168   1.081       .  S
C1166      C1167   1.383       .  A
C1166      C1878   1.473       .  S
C1167      H1169   1.082       .  S
N1170      N1171   1.324       .  A
N1170      C1174   1.342       .  A
N1171      C1172   1.348       .  A
C1172      C1173   1.386       .  A
C1172      H1175   1.081       .  S
C1173      C1174   1.383       .  A
C1173      C1853   1.481       .  S
C1174      H1176   1.081       .  S
N1177      N1178   1.320       .  A
N1177      C1181   1.351       .  A
N1177     Cu1185   2.088       .  S
N1178      C1179   1.340       .  A
N1178     Cu1184   2.058       .  S
C1179      C1180   1.384       .  A
C1179      H1182   1.081       .  S
C1180      C1181   1.388       .  A
C1180      C1845   1.484       .  S
C1181      H1183   1.081       .  S
Cu1184     N1187   2.057       .  S
Cu1185     N1195   2.091       .  S
Cu1186     N1188   2.072       .  S
Cu1186     N1194   2.074       .  S
N1187      N1188   1.320       .  A
N1187      C1191   1.340       .  A
N1188      C1189   1.348       .  A
C1189      C1190   1.385       .  A
C1189      H1192   1.082   1_655  S
C1190      C1191   1.382       .  A
C1190      C1841   1.475       .  S
C1191      H1193   1.082       .  S
N1194      N1195   1.325       .  A
N1194      C1198   1.345   1_655  A
N1195      C1196   1.346       .  A
C1196      C1197   1.383   1_655  A
C1196      H1199   1.082       .  S
C1197      C1198   1.383       .  A
C1198      H1200   1.081       .  S
N1201      N1202   1.323       .  A
N1201      C1205   1.351       .  A
N1201     Cu1209   2.088       .  S
N1202      C1203   1.340       .  A
N1202     Cu1208   2.065       .  S
C1203      C1204   1.378       .  A
C1203      H1206   1.082       .  S
C1204      C1205   1.389       .  A
C1204      C1846   1.475       .  S
C1205      H1207   1.082       .  S
Cu1208     N1211   2.064       .  S
Cu1209     N1219   2.090       .  S
Cu1210     N1212   2.075       .  S
Cu1210     N1218   2.076       .  S
N1211      N1212   1.320       .  A
N1211      C1215   1.344       .  A
N1212      C1213   1.346       .  A
C1213      C1214   1.385       .  A
C1213      H1216   1.082       .  S
C1214      C1215   1.385       .  A
C1214      C1833   1.477       .  S
C1215      H1217   1.082       .  S
N1218      N1219   1.324       .  A
N1218      C1222   1.344       .  A
N1219      C1220   1.348       .  A
C1220      C1221   1.385       .  A
C1220      H1223   1.082       .  S
C1221      C1222   1.385       .  A
C1221      C1837   1.482       .  S
C1222      H1224   1.081       .  S
N1225      N1226   1.320       .  A
N1225     Cu1233   2.087       .  S
N1226     Cu1232   2.056       .  S
C1227      C1228   1.388       .  A
C1227      H1230   1.081       .  S
C1228      C1229   1.389       .  A
C1228      C1829   1.490       .  S
C1229      H1231   1.082       .  S
Cu1232     N1235   2.057       .  S
Cu1233     N1243   2.090       .  S
Cu1234     N1236   2.084       .  S
Cu1234     N1242   2.087       .  S
N1235      N1236   1.320       .  A
N1235      C1239   1.339       .  A
N1236      C1237   1.352       .  A
C1237      C1238   1.389       .  A
C1237      H1240   1.082       .  S
C1238      C1239   1.377       .  A
C1238      C1857   1.473       .  S
C1239      H1241   1.082       .  S
N1242      N1243   1.326       .  A
N1242      C1246   1.347       .  A
N1243      C1244   1.346       .  A
C1244      C1245   1.382       .  A
C1244      H1247   1.082       .  S
C1245      C1246   1.385       .  A
C1245      C1838   1.480       .  S
C1246      H1248   1.081       .  S
N1249      N1250   1.323       .  A
N1249      C1253   1.354       .  A
N1249     Cu1257   2.101       .  S
N1250      C1251   1.340       .  A
N1250     Cu1256   2.064       .  S
C1251      C1252   1.378       .  A
C1251      H1254   1.082       .  S
C1252      C1253   1.392       .  A
C1252      C1830   1.480       .  S
C1253      H1255   1.082       .  S
Cu1256     N1259   2.063       .  S
Cu1257     N1267   2.102       .  S
Cu1258     N1260   2.068       .  S
Cu1258     N1266   2.071       .  S
N1259      N1260   1.319       .  A
N1259      C1263   1.343       .  A
N1260      C1261   1.346       .  A
C1261      C1262   1.383       .  A
C1261      H1264   1.082       .  S
C1262      C1263   1.383       .  A
C1262      C1910   1.472       .  S
C1263      H1265   1.082       .  S
N1266      N1267   1.325       .  A
N1266      C1270   1.342       .  A
N1267      C1268   1.350       .  A
C1268      C1269   1.387       .  A
C1268      H1271   1.082       .  S
C1269      C1270   1.384       .  A
C1269      C1825   1.484       .  S
C1270      H1272   1.081       .  S
N1273      N1274   1.319       .  A
N1273      C1277   1.350       .  A
N1273     Cu1281   2.079       .  S
N1274      C1275   1.339       .  A
N1274     Cu1280   2.056       .  S
C1275      C1276   1.385       .  A
C1275      H1278   1.081       .  S
C1276      C1277   1.387       .  A
C1276      C1821   1.483       .  S
C1277      H1279   1.082       .  S
Cu1280     N1283   2.057       .  S
Cu1281     N1291   2.081       .  S
Cu1282     N1284   2.087       .  S
Cu1282     N1290   2.089       .  S
N1283      N1284   1.321       .  A
N1283      C1287   1.340       .  A
N1284      C1285   1.351       .  A
C1285      C1286   1.389       .  A
C1285      H1288   1.082       .  S
C1286      C1287   1.376       .  A
C1286      C1817   1.472       .  S
C1287      H1289   1.082       .  S
N1290      N1291   1.325       .  A
N1290      C1294   1.349       .  A
N1291      C1292   1.343       .  A
C1292      C1293   1.380       .  A
C1292      H1295   1.083       .  S
C1293      C1294   1.386       .  A
C1293      C1826   1.478       .  S
C1294      H1296   1.082       .  S
N1297      N1298   1.321       .  A
N1297      C1301   1.352       .  A
N1297     Cu1305   2.090   1_565  S
N1298      C1299   1.338       .  A
N1298     Cu1304   2.053   1_565  S
C1299      C1300   1.376       .  A
C1299      H1302   1.082       .  S
C1300      C1301   1.390       .  A
C1300      C1822   1.473       .  S
C1301      H1303   1.082       .  S
Cu1304     N1307   2.054       .  S
Cu1306     N1308   2.076       .  S
Cu1306     N1314   2.077       .  S
N1307      C1311   1.340       .  A
N1308      C1309   1.347       .  A
C1309      C1310   1.387       .  A
C1309      H1312   1.082       .  S
C1310      C1809   1.475       .  S
C1311      H1313   1.082       .  S
N1314      N1315   1.325       .  A
N1314      C1318   1.345       .  A
N1315      C1316   1.347       .  A
C1316      C1317   1.385       .  A
C1316      H1319   1.082       .  S
C1317      C1318   1.384       .  A
C1317      C1813   1.482       .  S
C1318      H1320   1.081       .  S
N1321      N1322   1.320       .  A
N1321      C1325   1.353       .  A
N1321     Cu1329   2.099       .  S
N1322      C1323   1.338       .  A
N1322     Cu1328   2.055       .  S
C1323      C1324   1.385       .  A
C1323      H1326   1.081       .  S
C1324      C1325   1.392       .  A
C1324      C1850   1.489       .  S
C1325      H1327   1.082       .  S
Cu1328     N1331   2.055       .  S
Cu1329     N1339   2.102       .  S
Cu1330     N1332   2.073       .  S
Cu1330     N1338   2.076       .  S
N1331      N1332   1.319       .  A
N1331      C1335   1.340       .  A
N1332      C1333   1.349       .  A
C1333      C1334   1.387       .  A
C1333      H1336   1.081       .  S
C1334      C1335   1.378       .  A
C1334      C1886   1.470       .  S
C1335      H1337   1.082       .  S
N1338      N1339   1.326       .  A
N1338      C1342   1.345       .  A
N1339      C1340   1.348       .  A
C1340      C1341   1.386       .  A
C1340      H1343   1.082       .  S
C1341      C1342   1.383       .  A
C1341      C1814   1.482       .  S
C1342      H1344   1.081       .  S
N1345      N1346   1.322       .  A
N1345      C1349   1.356       .  A
N1345     Cu1353   2.105       .  S
N1346      C1347   1.337       .  A
N1346     Cu1352   2.053       .  S
C1347      C1348   1.375       .  A
C1347      H1350   1.082       .  S
C1348      C1349   1.394       .  A
C1348      C1801   1.478       .  S
C1349      H1351   1.082       .  S
Cu1352     N1355   2.052       .  S
Cu1353     N1363   2.108       .  S
Cu1354     N1356   2.075       .  S
Cu1354     N1362   2.078       .  S
N1355      N1356   1.318       .  A
N1355      C1359   1.340       .  A
N1356      C1357   1.348       .  A
C1357      C1358   1.387       .  A
C1357      H1360   1.082       .  S
C1358      C1359   1.384       .  A
C1358      C1797   1.478       .  S
C1359      H1361   1.082       .  S
N1362      N1363   1.327       .  A
N1362      C1366   1.344       .  A
N1363      C1364   1.350       .  A
C1364      C1365   1.390       .  A
C1364      H1367   1.081       .  S
C1365      C1366   1.379       .  A
C1365      C1805   1.482       .  S
C1366      H1368   1.082       .  S
N1369      N1370   1.323       .  A
N1369      C1373   1.353       .  A
N1369     Cu1377   2.090       .  S
N1370      C1371   1.339       .  A
N1370     Cu1376   2.067       .  S
C1371      C1372   1.378       .  A
C1371      H1374   1.083       .  S
C1372      C1373   1.390       .  A
C1372      C1793   1.476       .  S
C1373      H1375   1.082       .  S
Cu1376     N1379   2.067       .  S
Cu1377     N1387   2.091       .  S
Cu1378     N1380   2.072       .  S
Cu1378     N1386   2.074       .  S
N1379      N1380   1.320       .  A
N1379      C1383   1.345       .  A
N1380      C1381   1.346       .  A
C1381      C1382   1.387       .  A
C1381      H1384   1.082       .  S
C1382      C1383   1.382       .  A
C1382      C1810   1.476       .  S
C1383      H1385   1.082       .  S
N1386      N1387   1.324       .  A
N1386      C1390   1.344       .  A
N1387      C1388   1.348       .  A
C1388      C1389   1.389       .  A
C1388      H1391   1.081       .  S
C1389      C1390   1.380       .  A
C1390      H1392   1.081       .  S
N1393     Cu1401   2.094       .  S
N1394      C1395   1.339       .  A
C1395      C1396   1.378       .  A
C1395      H1398   1.083       .  S
C1396      C1397   1.392       .  A
C1396      C1785   1.479       .  S
C1397      H1399   1.082       .  S
Cu1400     N1403   2.063       .  S
Cu1401     N1411   2.095       .  S
Cu1402     N1404   2.081       .  S
Cu1402     N1410   2.082       .  S
N1403      N1404   1.321       .  A
N1403      C1407   1.343       .  A
N1404      C1405   1.347       .  A
C1405      C1406   1.385       .  A
C1405      H1408   1.082       .  S
C1406      C1407   1.383       .  A
C1406      C1781   1.475       .  S
C1407      H1409   1.082       .  S
N1410      N1411   1.325       .  A
N1410      C1414   1.346       .  A
N1411      C1412   1.348       .  A
C1412      C1413   1.385       .  A
C1412      H1415   1.082       .  S
C1413      C1414   1.386       .  A
C1413      C1790   1.484       .  S
C1414      H1416   1.081       .  S
N1417      N1418   1.321       .  A
N1417      C1421   1.352       .  A
N1417     Cu1425   2.093       .  S
N1418      C1419   1.339       .  A
N1418     Cu1424   2.060       .  S
C1419      C1420   1.384       .  A
C1419      H1422   1.082       .  S
C1420      C1421   1.389       .  A
C1420      C1794   1.485       .  S
C1421      H1423   1.082       .  S
Cu1424     N1427   2.061       .  S
Cu1425     N1435   2.095       .  S
Cu1426     N1428   2.080       .  S
Cu1426     N1434   2.082       .  S
N1427      N1428   1.320       .  A
N1427      C1431   1.341       .  A
N1428      C1429   1.348       .  A
C1429      C1430   1.386       .  A
C1429      H1432   1.082       .  S
C1430      C1431   1.385       .  A
C1430      C1818   1.480       .  S
C1431      H1433   1.082       .  S
N1434      N1435   1.325       .  A
N1434      C1438   1.347       .  A
N1435      C1436   1.347       .  A
C1436      C1437   1.385       .  A
C1436      H1439   1.082       .  S
C1437      C1438   1.386       .  A
C1437      C1789   1.483       .  S
C1438      H1440   1.081       .  S
N1441      N1442   1.319       .  A
N1441      C1445   1.352       .  A
N1441     Cu1449   2.088       .  S
N1442      C1443   1.338       .  A
N1442     Cu1448   2.051       .  S
C1443      C1444   1.383       .  A
C1443      H1446   1.081       .  S
C1444      C1445   1.390       .  A
C1444      C1773   1.484       .  S
C1445      H1447   1.082       .  S
Cu1448     N1451   2.051       .  S
Cu1450     N1452   2.078       .  S
Cu1450     N1458   2.081       .  S
N1451      C1455   1.338       .  A
N1452      C1453   1.349       .  A
C1453      C1454   1.387       .  A
C1453      H1456   1.082       .  S
C1454      C1842   1.468       .  S
C1455      H1457   1.082       .  S
N1458      N1459   1.326       .  A
N1458      C1462   1.346   1_655  A
N1459      C1460   1.347       .  A
C1460      C1461   1.384   1_655  A
C1460      H1463   1.082       .  S
C1461      C1462   1.384       .  A
C1461      C1777   1.481       .  S
C1462      H1464   1.081       .  S
N1465      N1466   1.322       .  A
N1465      C1469   1.352       .  A
N1465     Cu1473   2.095       .  S
N1466      C1467   1.340       .  A
N1466     Cu1472   2.071       .  S
C1467      C1468   1.386       .  A
C1467      H1470   1.081       .  S
C1468      C1469   1.389       .  A
C1468      C1802   1.490       .  S
C1469      H1471   1.082       .  S
Cu1472     N1475   2.070       .  S
Cu1473     N1483   2.096       .  S
Cu1474     N1476   2.071       .  S
Cu1474     N1482   2.072       .  S
N1475      N1476   1.320       .  A
N1475      C1479   1.345       .  A
N1476      C1477   1.345       .  A
C1477      C1478   1.383       .  A
C1477      H1480   1.082       .  S
C1478      C1479   1.385       .  A
C1478      C1770   1.475       .  S
C1479      H1481   1.082       .  S
N1482      N1483   1.324       .  A
N1482      C1486   1.344       .  A
N1483      C1484   1.348       .  A
C1484      C1485   1.386       .  A
C1484      H1487   1.082       .  S
C1485      C1486   1.384       .  A
C1485      C1778   1.482       .  S
C1486      H1488   1.081       .  S
N1489      N1490   1.323       .  A
N1489      C1493   1.352       .  A
N1489     Cu1497   2.089       .  S
N1490      C1491   1.339       .  A
N1490     Cu1496   2.068       .  S
C1491      C1492   1.378       .  A
C1491      H1494   1.082       .  S
C1492      C1493   1.389       .  A
C1492      C1774   1.475       .  S
C1493      H1495   1.082       .  S
Cu1496     N1499   2.067       .  S
Cu1497     N1507   2.090       .  S
Cu1498     N1500   2.071       .  S
Cu1498     N1506   2.072       .  S
N1499      N1500   1.320       .  A
N1499      C1503   1.345       .  A
N1500      C1501   1.345       .  A
C1501      C1502   1.384       .  A
C1501      H1504   1.082       .  S
C1502      C1503   1.386       .  A
C1502      C1834   1.476       .  S
C1503      H1505   1.082       .  S
N1506      N1507   1.324       .  A
N1506      C1510   1.343       .  A
N1507      C1508   1.348       .  A
C1508      C1509   1.386       .  A
C1508      H1511   1.083       .  S
C1509      C1510   1.384       .  A
C1509      C1765   1.481       .  S
C1510      H1512   1.082       .  S
N1513      N1514   1.320       .  A
N1513      C1517   1.352       .  A
N1513     Cu1521   2.091       .  S
N1514      C1515   1.340       .  A
N1514     Cu1520   2.060       .  S
C1515      C1516   1.385       .  A
C1515      H1518   1.081       .  S
C1516      C1517   1.390       .  A
C1516      C1786   1.486       .  S
C1517      H1519   1.082       .  S
Cu1520     N1523   2.060       .  S
Cu1521     N1531   2.094       .  S
Cu1522     N1524   2.080       .  S
Cu1522     N1530   2.082       .  S
N1523      N1524   1.321       .  A
N1523      C1527   1.340       .  A
N1524      C1525   1.350       .  A
C1525      C1526   1.388       .  A
C1525      H1528   1.082       .  S
C1526      C1527   1.377       .  A
C1526      C1761   1.472       .  S
C1527      H1529   1.082       .  S
N1530      N1531   1.326       .  A
N1530      C1534   1.346       .  A
N1531      C1532   1.346       .  A
C1532      C1533   1.383       .  A
C1532      H1535   1.083       .  S
C1533      C1534   1.384       .  A
C1533      C1766   1.479       .  S
C1534      H1536   1.081       .  S
N1537      N1538   1.321       .  A
N1537      C1541   1.352       .  A
N1537     Cu1545   2.088       .  S
N1538      C1539   1.339       .  A
N1538     Cu1544   2.068       .  S
C1539      C1540   1.387       .  A
C1539      H1542   1.081       .  S
C1540      C1541   1.389       .  A
C1540      C1753   1.490       .  S
C1541      H1543   1.081       .  S
Cu1544     N1547   2.067       .  S
Cu1545     N1555   2.089       .  S
Cu1546     N1548   2.075       .  S
Cu1546     N1554   2.077       .  S
N1547      N1548   1.320       .  A
N1547      C1551   1.344       .  A
N1548      C1549   1.346       .  A
C1549      C1550   1.384       .  A
C1549      H1552   1.081       .  S
C1550      C1551   1.384       .  A
C1550      C1782   1.475       .  S
C1551      H1553   1.081       .  S
N1554      N1555   1.324       .  A
N1554      C1558   1.344       .  A
N1555      C1556   1.348       .  A
C1556      C1557   1.388       .  A
C1556      H1559   1.081       .  S
C1557      C1558   1.380       .  A
C1557      C1757   1.479       .  S
C1558      H1560   1.080       .  S
N1561      N1562   1.324       .  A
N1561      C1565   1.357       .  A
N1561     Cu1569   2.113       .  S
N1562      C1563   1.338       .  A
N1562     Cu1568   2.065       .  S
C1563      C1564   1.376       .  A
C1563      H1566   1.083       .  S
C1564      C1565   1.394       .  A
C1564      C1749   1.481       .  S
C1565      H1567   1.082       .  S
Cu1568     N1571   2.064       .  S
Cu1569     N1579   2.114       .  S
Cu1570     N1572   2.062       .  S
Cu1570     N1578   2.064       .  S
N1571      N1572   1.318       .  A
N1571      C1575   1.344       .  A
N1572      C1573   1.345       .  A
C1573      C1574   1.383       .  A
C1573      H1576   1.082       .  S
C1574      C1575   1.386       .  A
C1574      C1902   1.475       .  S
C1575      H1577   1.082       .  S
N1578      N1579   1.325       .  A
N1578      C1582   1.341       .  A
N1579      C1580   1.354       .  A
C1580      C1581   1.393       .  A
C1580      H1583   1.081   1_554  S
C1581      C1582   1.376       .  A
C1582      H1584   1.083       .  S
N1585      N1586   1.322       .  A
N1585      C1589   1.354       .  A
N1585     Cu1593   2.106       .  S
N1586      C1587   1.341       .  A
N1586     Cu1592   2.065       .  S
C1587      C1588   1.384       .  A
C1587      H1590   1.082       .  S
C1588      C1589   1.392       .  A
C1588      C1750   1.490       .  S
C1589      H1591   1.082       .  S
Cu1592     N1595   2.065       .  S
Cu1593     N1603   2.109       .  S
Cu1594     N1596   2.089       .  S
Cu1594     N1602   2.090       .  S
N1595      N1596   1.321       .  A
N1595      C1599   1.343       .  A
N1596      C1597   1.350       .  A
C1597      C1598   1.389       .  A
C1597      H1600   1.082       .  S
C1598      C1599   1.380       .  A
C1598      C1894   1.478       .  S
C1599      H1601   1.082       .  S
N1602      N1603   1.326       .  A
N1602      C1606   1.349       .  A
N1603      C1604   1.349       .  A
C1604      C1605   1.388       .  A
C1604      H1607   1.082   1_554  S
C1605      C1606   1.386       .  A
C1605      C1746   1.490       .  S
C1606      H1608   1.081       .  S
N1609      N1610   1.321       .  A
N1609     Cu1617   2.119       .  S
N1610     Cu1616   2.053       .  S
C1611      C1612   1.385       .  A
C1611      H1614   1.081       .  S
C1612      C1613   1.392       .  A
C1612      C1741   1.491       .  S
C1613      H1615   1.082       .  S
Cu1616     N1619   2.053       .  S
Cu1617     N1627   2.122       .  S
Cu1618     N1620   2.076       .  S
Cu1618     N1626   2.079       .  S
N1619      N1620   1.320       .  A
N1619      C1623   1.340       .  A
N1620      C1621   1.349       .  A
C1621      C1622   1.387       .  A
C1621      H1624   1.082       .  S
C1622      C1623   1.378       .  A
C1622      C1798   1.470       .  S
C1623      H1625   1.082       .  S
N1626      N1627   1.326       .  A
N1626      C1630   1.346       .  A
N1627      C1628   1.351       .  A
C1628      C1629   1.391       .  A
C1628      H1631   1.082   1_556  S
C1629      C1630   1.384       .  A
C1629      C1745   1.491   1_556  S
C1630      H1632   1.081       .  S
N1633      N1634   1.321       .  A
N1633      C1637   1.350       .  A
N1633     Cu1641   2.087       .  S
N1634      C1635   1.341       .  A
N1634     Cu1640   2.065       .  S
C1635      C1636   1.385       .  A
C1635      H1638   1.082       .  S
C1636      C1637   1.387       .  A
C1636      C1733   1.484       .  S
C1637      H1639   1.082       .  S
Cu1640     N1643   2.063       .  S
Cu1641     N1651   2.089       .  S
Cu1642     N1644   2.074   1_455  S
Cu1642     N1650   2.075       .  S
N1643      N1644   1.321       .  A
N1643      C1647   1.342       .  A
N1644      C1645   1.346   1_655  A
C1645      C1646   1.387       .  A
C1645      H1648   1.082       .  S
C1646      C1647   1.379   1_455  A
C1646      C1870   1.473       .  S
C1647      H1649   1.082       .  S
N1650      N1651   1.324   1_455  A
N1650      C1654   1.346       .  A
N1651      C1652   1.346       .  A
C1652      C1653   1.384   1_655  A
C1652      H1655   1.082   1_554  S
C1653      C1654   1.384       .  A
C1653      C1737   1.480   1_554  S
C1654      H1656   1.082       .  S
N1657      N1658   1.324       .  A
N1657      C1661   1.353       .  A
N1657     Cu1665   2.097       .  S
N1658      C1659   1.341       .  A
N1658     Cu1664   2.075       .  S
C1659      C1660   1.380       .  A
C1659      H1662   1.082       .  S
C1660      C1661   1.390       .  A
C1660      C1742   1.480       .  S
C1661      H1663   1.082       .  S
Cu1664     N1667   2.073       .  S
Cu1665     N1675   2.098       .  S
Cu1666     N1668   2.065       .  S
Cu1666     N1674   2.066       .  S
N1667      N1668   1.320       .  A
N1667      C1671   1.345       .  A
N1668      C1669   1.345       .  A
C1669      C1670   1.382       .  A
C1669      H1672   1.082       .  S
C1670      C1671   1.386       .  A
C1670      C1769   1.475       .  S
C1671      H1673   1.082       .  S
N1674      N1675   1.323       .  A
N1674      C1678   1.343       .  A
N1675      C1676   1.349       .  A
C1676      C1677   1.387       .  A
C1676      H1679   1.082       .  S
C1677      C1678   1.383       .  A
C1677      C1738   1.482       .  S
C1678      H1680   1.081       .  S
N1681      N1682   1.322       .  A
N1681      C1685   1.352       .  A
N1681     Cu1689   2.090   1_565  S
N1682      C1683   1.340       .  A
N1682     Cu1688   2.063       .  S
C1683      C1684   1.378       .  A
C1683      H1686   1.083       .  S
C1684      C1685   1.390       .  A
C1684      C1734   1.476       .  S
C1685      H1687   1.082       .  S
Cu1688     N1691   2.063   1_565  S
Cu1690     N1692   2.071       .  S
Cu1690     N1698   2.072       .  S
N1691      C1695   1.343       .  A
N1692      C1693   1.345       .  A
C1693      C1694   1.383       .  A
C1693      H1696   1.082       .  S
C1694      C1861   1.473       .  S
C1695      H1697   1.082   1_545  S
N1698      N1699   1.324       .  A
N1698      C1702   1.344       .  A
N1699      C1700   1.347       .  A
C1700      C1701   1.386       .  A
C1700      H1703   1.082   1_554  S
C1701      C1702   1.384       .  A
C1701      C1729   1.481   1_554  S
C1702      H1704   1.081       .  S
N1705      N1706   1.322       .  A
N1705      C1709   1.356       .  A
N1705     Cu1713   2.098       .  S
N1706      C1707   1.337       .  A
N1706     Cu1712   2.058       .  S
C1707      C1708   1.375       .  A
C1707      H1710   1.082       .  S
C1708      C1709   1.393       .  A
C1708      C1754   1.476       .  S
C1709      H1711   1.082       .  S
Cu1712     N1715   2.059       .  S
Cu1713     N1723   2.101       .  S
Cu1714     N1716   2.073       .  S
Cu1714     N1722   2.075       .  S
N1715      N1716   1.319       .  A
N1715      C1719   1.342       .  A
N1716      C1717   1.348       .  A
C1717      C1718   1.386       .  A
C1717      H1720   1.082       .  S
C1718      C1719   1.385       .  A
C1718      C1762   1.479       .  S
C1719      H1721   1.082       .  S
N1722      N1723   1.326       .  A
N1722      C1726   1.344       .  A
N1723      C1724   1.348       .  A
C1724      C1725   1.386       .  A
C1724      H1727   1.082       .  S
C1725      C1726   1.383       .  A
C1725      C1730   1.481       .  S
C1726      H1728   1.081       .  S
C1729      C1730   1.348       .  D
C1729      H1731   1.085       .  S
C1730      H1732   1.085   1_556  S
C1733      C1734   1.344       .  D
C1733      H1735   1.086       .  S
C1734      H1736   1.086       .  S
C1737      C1738   1.347       .  D
C1737      H1739   1.085       .  S
C1738      H1740   1.085   1_556  S
C1741      C1742   1.348       .  D
C1741      H1743   1.085       .  S
C1742      H1744   1.083       .  S
C1745      C1746   1.352       .  D
C1745      H1747   1.085       .  S
C1746      H1748   1.085   1_554  S
C1749      C1750   1.346       .  D
C1749      H1751   1.086       .  S
C1750      H1752   1.086       .  S
C1753      C1754   1.345       .  D
C1753      H1755   1.085       .  S
C1754      H1756   1.082       .  S
C1757      C1758   1.343   1_556  D
C1757      H1759   1.084       .  S
C1758      H1760   1.084       .  S
C1761      C1762   1.342       .  D
C1761      H1763   1.086       .  S
C1762      H1764   1.086       .  S
C1765      C1766   1.346       .  D
C1765      H1767   1.086       .  S
C1766      H1768   1.086       .  S
C1769      C1770   1.342       .  D
C1769      H1771   1.086       .  S
C1770      H1772   1.086       .  S
C1773      C1774   1.345       .  D
C1773      H1775   1.085       .  S
C1774      H1776   1.085       .  S
C1777      C1778   1.347       .  D
C1777      H1779   1.085       .  S
C1778      H1780   1.085       .  S
C1781      C1782   1.344       .  D
C1781      H1783   1.086       .  S
C1782      H1784   1.086       .  S
C1785      C1786   1.345       .  D
C1785      H1787   1.086       .  S
C1786      H1788   1.086       .  S
C1789      C1790   1.347       .  D
C1789      H1791   1.085       .  S
C1790      H1792   1.085       .  S
C1793      C1794   1.345       .  D
C1793      H1795   1.086       .  S
C1794      H1796   1.085       .  S
C1797      C1798   1.343       .  D
C1797      H1799   1.086       .  S
C1798      H1800   1.085       .  S
C1801      C1802   1.345       .  D
C1801      H1803   1.085       .  S
C1802      H1804   1.085       .  S
C1805      C1806   1.343       .  D
C1805      H1807   1.085       .  S
C1806      H1808   1.085       .  S
C1809      C1810   1.342       .  D
C1809      H1811   1.086       .  S
C1810      H1812   1.086       .  S
C1813      C1814   1.348       .  D
C1813      H1815   1.085       .  S
C1814      H1816   1.085       .  S
C1817      C1818   1.342       .  D
C1817      H1819   1.086       .  S
C1818      H1820   1.086       .  S
C1821      C1822   1.343       .  D
C1821      H1823   1.085       .  S
C1822      H1824   1.085       .  S
C1825      C1826   1.346       .  D
C1825      H1827   1.086       .  S
C1826      H1828   1.085       .  S
C1829      C1830   1.346       .  D
C1829      H1831   1.086       .  S
C1830      H1832   1.084       .  S
C1833      C1834   1.344       .  D
C1833      H1835   1.086       .  S
C1834      H1836   1.086       .  S
C1837      C1838   1.346       .  D
C1837      H1839   1.085       .  S
C1838      H1840   1.085       .  S
C1841      C1842   1.341       .  D
C1841      H1843   1.086   1_655  S
C1842      H1844   1.087       .  S
C1845      C1846   1.345       .  D
C1845      H1847   1.085       .  S
C1846      H1848   1.084       .  S
C1849      C1850   1.347       .  D
C1849      H1851   1.083       .  S
C1850      H1852   1.085       .  S
C1853      C1854   1.346       .  D
C1853      H1855   1.084       .  S
C1854      H1856   1.084   1_455  S
C1857      C1858   1.344       .  D
C1857      H1859   1.086       .  S
C1858      H1860   1.086       .  S
C1861      C1862   1.343       .  D
C1862      H1864   1.087       .  S
C1865      C1866   1.346   1_545  D
C1866      H1868   1.085       .  S
C1869      C1870   1.341       .  D
C1869      H1871   1.086       .  S
C1870      H1872   1.086       .  S
C1873      C1874   1.344       .  D
C1873      H1875   1.085       .  S
C1874      H1876   1.085       .  S
C1877      C1878   1.342       .  D
C1877      H1879   1.086       .  S
C1878      H1880   1.085       .  S
C1881      C1882   1.347       .  D
C1881      H1883   1.085       .  S
C1882      H1884   1.085       .  S
C1885      C1886   1.343       .  D
C1885      H1887   1.086       .  S
C1886      H1888   1.087       .  S
C1889      C1890   1.347       .  D
C1889      H1891   1.086       .  S
C1890      H1892   1.086       .  S
C1893      C1894   1.343       .  D
C1893      H1895   1.086       .  S
C1894      H1896   1.086       .  S
C1897      C1898   1.344       .  D
C1897      H1899   1.084       .  S
C1898      H1900   1.083       .  S
C1901      C1902   1.342       .  D
C1901      H1903   1.086       .  S
C1902      H1904   1.086       .  S
C1905      C1906   1.344       .  D
C1905      H1907   1.084       .  S
C1906      H1908   1.085       .  S
C1909      C1910   1.342       .  D
C1909      H1911   1.087       .  S
C1910      H1912   1.086       .  S
C1913      C1914   1.344       .  D
C1913      H1915   1.086       .  S
C1914      H1916   1.086       .  S
C1917      C1918   1.347       .  D
C1917      H1919   1.085       .  S
C1918      H1920   1.086       .  S
