geometry optimzed in LAMMPS
_audit_creation_date              2020-12-01 
_audit_creation_method            'lammps2cif' 
_symmetry_space_group_name_H-M    'P1' 
_symmetry_Int_Tables_number       1 
_symmetry_cell_setting            triclinic 
loop_ 
_symmetry_equiv_pos_as_xyz 
  x,y,z 
_cell_length_a                    105.39631707 
_cell_length_b                    105.06272721421449 
_cell_length_c                    27.28768577764671 
_cell_angle_alpha                 90.50867794974947 
_cell_angle_beta                  89.82711995235418 
_cell_angle_gamma                 120.29259010360732 
loop_ 
_atom_site_label 
_atom_site_type_symbol 
_atom_site_fract_x 
_atom_site_fract_y 
_atom_site_fract_z 
_atom_site_charge 
O1          O  0.25129352  0.89711541  0.51025093    -0.56700
C2          C  0.24952635  0.88987638  0.66088291     0.75900
O3          O  0.24465024  0.85397715  0.56090379    -0.57800
C4          C  0.25504221  0.89309518  0.47159110     0.75900
C5          C  0.28668270  0.89407724  0.58557146     0.78300
Cd6        Cd  0.25589779  0.88161754  0.56690942     1.37500
O7          O  0.24711700  0.89467881  0.62160483    -0.56700
O8          O  0.28081973  0.90166369  0.57522332    -0.55500
C9          C  0.23165538  0.85178182  0.55965789     0.78300
O10         O  0.27844626  0.88015826  0.58403434    -0.57900
O11         O  0.25470212  0.88139224  0.65643488    -0.56300
O12         O  0.25955534  0.88405854  0.47686241    -0.56300
O13         O  0.23030477  0.86305157  0.56119908    -0.55500
O14         O  0.41694827  0.98243678  0.78707149    -0.56700
C15         C  0.42202668  0.97627475  0.63726774     0.75900
O16         O  0.42362855  0.94495986  0.73966898    -0.57800
C17         C  0.41396599  0.97505908  0.82621529     0.75900
C18         C  0.38242070  0.94307415  0.70839685     0.78300
Cd19       Cd  0.41310023  0.96185766  0.73117535     1.37500
O20         O  0.42358279  0.98367374  0.67601649    -0.56700
O21         O  0.38848197  0.95692101  0.71268528    -0.55500
C22         C  0.43661737  0.95574381  0.74485404     0.78300
O23         O  0.39031255  0.93741705  0.71764438    -0.57900
O24         O  0.41651506  0.96252663  0.64220286    -0.56300
O25         O  0.40989185  0.96153268  0.82132974    -0.56300
O26         O  0.43822050  0.96847846  0.74306373    -0.55500
O27         O  0.43408648  0.01095250  0.17749494    -0.56700
C28         C  0.44506778  0.01931332  0.32730182     0.75900
O29         O  0.47665842  0.04976038  0.21941682    -0.57800
C30         C  0.43598097  0.01830196  0.13880197     0.75900
C31         C  0.43630755  0.05011684  0.25721642     0.78300
Cd32       Cd  0.44936996  0.03246483  0.23160393     1.37500
O33         O  0.43897547  0.01146945  0.28955760    -0.56700
O34         O  0.42885144  0.03627517  0.25137013    -0.55500
C35         C  0.47910112  0.03928832  0.21086979     0.78300
O36         O  0.44995011  0.05626947  0.24773064    -0.57900
O37         O  0.45332135  0.03298583  0.32061306    -0.56300
O38         O  0.44330110  0.03221213  0.14334796    -0.56300
O39         O  0.46811520  0.02640825  0.21199743    -0.55500
O40         O  0.34878326  0.09768580  0.35131114    -0.56700
C41         C  0.35556418  0.09761674  0.50173451     0.75900
O42         O  0.39392016  0.11075310  0.39446520    -0.57800
C43         C  0.35638522  0.10367496  0.31336939     0.75900
C44         C  0.37570678  0.13973483  0.41802061     0.78300
Cd45       Cd  0.36985566  0.10981357  0.40879797     1.37500
O46         O  0.34832256  0.09485934  0.46221603    -0.56700
O47         O  0.36317861  0.12860794  0.41067795    -0.55500
C48         C  0.38795597  0.09691428  0.38801247     0.78300
O49         O  0.38633607  0.13736524  0.42250591    -0.57900
O50         O  0.36940168  0.10550347  0.49822961    -0.56300
O51         O  0.37001608  0.11228280  0.31966000    -0.56300
O52         O  0.37418988  0.08940305  0.39409268    -0.55500
O53         O  0.23705042  0.91248948  0.12554897    -0.56700
C54         C  0.23017955  0.91190199  0.97505556     0.75900
O55         O  0.19456381  0.90702245  0.07690626    -0.57800
C56         C  0.23310810  0.91603407  0.16479112     0.75900
C57         C  0.23410173  0.94943174  0.05274619     0.78300
Cd58       Cd  0.22214630  0.91831592  0.06968602     1.37500
O59         O  0.22121804  0.91647107  0.97992100    -0.56700
O60         O  0.24195972  0.94375282  0.06151460    -0.55500
C61         C  0.19230933  0.89395490  0.07675856     0.78300
O62         O  0.22029339  0.94093062  0.05547320    -0.57900
O63         O  0.23561295  0.91018334  0.01411292    -0.56300
O64         O  0.22458890  0.92117989  0.16020215    -0.56300
O65         O  0.20349801  0.89257736  0.07324303    -0.55500
O66         O  0.31970225  0.07959076  0.85201121    -0.56700
C67         C  0.31331907  0.08328357  0.00262157     0.75900
O68         O  0.28339078  0.08734467  0.90256468    -0.57800
C69         C  0.31240849  0.07694402  0.81263036     0.75900
C70         C  0.28039214  0.04516982  0.92927816     0.78300
Cd71       Cd  0.29937033  0.07590528  0.90783585     1.37500
O72         O  0.32083069  0.08534398  0.96402976    -0.56700
O73         O  0.29420985  0.05131336  0.92601852    -0.55500
C74         C  0.29440207  0.10032725  0.90104990     0.78300
O75         O  0.27471303  0.05300309  0.91913180    -0.57900
O76         O  0.29967167  0.07808915  0.99707634    -0.56300
O77         O  0.29901587  0.07322941  0.81717380    -0.56300
O78         O  0.30695178  0.10157802  0.90226049    -0.55500
O79         O  0.68363352  0.91373551  0.13893143    -0.56700
C80         C  0.69031835  0.91420078  0.98836333     0.75900
O81         O  0.72845327  0.94270477  0.06993418    -0.57800
C82         C  0.69127351  0.91733375  0.17776139     0.75900
C83         C  0.70831953  0.89477944  0.08132952     0.78300
Cd84       Cd  0.70408736  0.91977583  0.08231795     1.37500
O85         O  0.68285225  0.91223653  0.02704247    -0.56700
O86         O  0.69597866  0.89384926  0.07634947    -0.55500
C87         C  0.72272600  0.95064218  0.06221201     0.78300
O88         O  0.71934958  0.90761439  0.08761141    -0.57900
O89         O  0.70383674  0.91861757  0.99363807    -0.56300
O90         O  0.70496632  0.92258321  0.17263312    -0.56300
O91         O  0.70899834  0.94463007  0.06840406    -0.55500
O92         O  0.77042160  0.08629610  0.95638164    -0.56700
C93         C  0.76803021  0.07518194  0.80716064     0.75900
O94         O  0.80878131  0.08594805  0.89603198    -0.57800
C95         C  0.77542260  0.08383490  0.99507506     0.75900
C96         C  0.76876498  0.04414473  0.92136416     0.78300
Cd97       Cd  0.78116523  0.07510190  0.90041333     1.37500
O98         O  0.76441628  0.07893874  0.84672418    -0.56700
O99         O  0.76111788  0.05015780  0.91450838    -0.55500
C100        C  0.81104664  0.09865755  0.88530718     0.78300
O101        O  0.78252646  0.05220607  0.91511750    -0.57900
O102        O  0.77719314  0.07078843  0.81080709    -0.56300
O103        O  0.78304886  0.07774578  0.98958491    -0.56300
O104        O  0.79984521  0.09995798  0.88091789    -0.55500
O105        O  0.75153221  0.09457285  0.45898307    -0.56700
C106        C  0.75492559  0.10524744  0.30870238     0.75900
O107        O  0.72365298  0.11139102  0.39301392    -0.57800
C108        C  0.74698309  0.09748698  0.49818005     0.75900
C109        C  0.77029055  0.14011311  0.41731952     0.78300
Cd110      Cd  0.74660961  0.11036083  0.40446142     1.37500
O111        O  0.75587321  0.09863206  0.34597548    -0.56700
O112        O  0.77193269  0.12903149  0.41451518    -0.55500
C113        C  0.71623523  0.09802835  0.37897400     0.78300
O114        O  0.75723005  0.13771235  0.41501571    -0.57900
O115        O  0.75048299  0.11425782  0.31603147    -0.56300
O116        O  0.74165566  0.10587086  0.49414827    -0.56300
O117        O  0.72261909  0.09057771  0.37979325    -0.55500
O118        O  0.57846596  0.01135280  0.28920478    -0.56700
C119        C  0.59009213  0.02054328  0.13960640     0.75900
O120        O  0.57985273  0.05037244  0.23065497    -0.57800
C121        C  0.58085563  0.01882610  0.32834117     0.75900
C122        C  0.62086643  0.05075191  0.25364257     0.78300
Cd123      Cd  0.58997418  0.03317391  0.23409995     1.37500
O124        O  0.58585670  0.01277810  0.17805712    -0.56700
O125        O  0.61417228  0.03686140  0.24951281    -0.55500
C126        C  0.56732170  0.04025783  0.21606310     0.78300
O127        O  0.61341808  0.05700686  0.24624855    -0.57900
O128        O  0.59479489  0.03419433  0.14502350    -0.56300
O129        O  0.58711610  0.03264785  0.32375326    -0.56300
O130        O  0.56568582  0.02758790  0.21017027    -0.55500
O131        O  0.56613868  0.98503383  0.67933246    -0.56700
C132        C  0.56853641  0.97800622  0.82750232     0.75900
O133        O  0.52762390  0.94602616  0.74417426    -0.57800
C134        C  0.55960435  0.97769358  0.64119913     0.75900
C135        C  0.56752919  0.94568141  0.71077872     0.78300
Cd136      Cd  0.55488937  0.96369670  0.73528993     1.37500
O137        O  0.57102482  0.98527310  0.78832336    -0.56700
O138        O  0.57493743  0.95958702  0.71340855    -0.55500
C139        C  0.52492323  0.95631061  0.75285930     0.78300
O140        O  0.55404935  0.93962907  0.72234194    -0.57900
O141        O  0.56028683  0.96415715  0.82383329    -0.56300
O142        O  0.55070932  0.96408801  0.64675918    -0.56300
O143        O  0.53580723  0.96925616  0.75423005    -0.55500
O144        O  0.65607067  0.90115521  0.52837272    -0.56700
C145        C  0.64791063  0.89316727  0.67729089     0.75900
O146        O  0.61061310  0.88416261  0.59083843    -0.57800
C147        C  0.64885589  0.89672471  0.48869170     0.75900
C148        C  0.63011110  0.85594834  0.57514592     0.78300
Cd149      Cd  0.63490855  0.88546928  0.58160670     1.37500
O150        O  0.65576109  0.89789638  0.63911106    -0.56700
O151        O  0.64256304  0.86738970  0.58029349    -0.55500
C152        C  0.61635846  0.89806632  0.59422357     0.78300
O153        O  0.61913509  0.85783244  0.57278200    -0.57900
O154        O  0.63420415  0.88502437  0.67108756    -0.56300
O155        O  0.63523412  0.88757336  0.49217821    -0.56300
O156        O  0.63013738  0.90570167  0.58872328    -0.55500
O157        O  0.75410463  0.65364037  0.44715739    -0.56700
C158        C  0.75511195  0.64610945  0.29624727     0.75900
O159        O  0.75955283  0.61662694  0.39794598    -0.57800
C160        C  0.74956066  0.64589235  0.48550848     0.75900
C161        C  0.71734069  0.61397706  0.37201342     0.78300
Cd162      Cd  0.74824933  0.63271056  0.39114339     1.37500
O163        O  0.75621345  0.65361930  0.33429615    -0.56700
O164        O  0.72357986  0.62787301  0.37464593    -0.55500
C165        C  0.77242476  0.62754255  0.40408717     0.78300
O166        O  0.72520965  0.60827584  0.38122264    -0.57900
O167        O  0.75117460  0.63270139  0.30241478    -0.56300
O168        O  0.74381003  0.63208484  0.47990142    -0.56300
O169        O  0.77376442  0.64018281  0.40355103    -0.55500
O170        O  0.58435776  0.56717599  0.18143900    -0.56700
C171        C  0.58117556  0.55797742  0.33004702     0.75900
O172        O  0.57828855  0.52381525  0.23017218    -0.57800
C173        C  0.58830973  0.56356542  0.14232146     0.75900
C174        C  0.62047213  0.56434579  0.25662340     0.78300
Cd175      Cd  0.58943319  0.55153950  0.23618427     1.37500
O176        O  0.57929535  0.56332525  0.29115304    -0.56700
O177        O  0.61439928  0.57186203  0.24814542    -0.55500
C178        C  0.56557845  0.52171829  0.22080043     0.78300
O179        O  0.61240609  0.55044790  0.25249899    -0.57900
O180        O  0.58663677  0.54975437  0.32525065    -0.56300
O181        O  0.59345834  0.55502387  0.14678265    -0.56300
O182        O  0.56438327  0.53305793  0.21864804    -0.55500
O183        O  0.65340626  0.74757372  0.52009573    -0.56700
C184        C  0.64580428  0.74731084  0.66994176     0.75900
O185        O  0.61636217  0.75272991  0.56447520    -0.57800
C186        C  0.64593036  0.74354806  0.48085548     0.75900
C187        C  0.61406522  0.71045936  0.59313143     0.78300
Cd188      Cd  0.63236947  0.74135614  0.57493573     1.37500
O189        O  0.65337928  0.74968731  0.63132134    -0.56700
O190        O  0.62752401  0.71631682  0.58211099    -0.55500
C191        C  0.62730022  0.76572727  0.56827871     0.78300
O192        O  0.60846012  0.71868654  0.59187257    -0.57900
O193        O  0.63219690  0.74233535  0.66449533    -0.56300
O194        O  0.63216383  0.73797882  0.48519293    -0.56300
O195        O  0.63971792  0.76694666  0.57459285    -0.55500
O196        O  0.56863671  0.57997027  0.79544035    -0.56700
C197        C  0.55835773  0.57570095  0.64506070     0.75900
O198        O  0.52487525  0.57258757  0.74211793    -0.57800
C199        C  0.56486303  0.58397432  0.83413209     0.75900
C200        C  0.56529348  0.61491692  0.71804155     0.78300
Cd201      Cd  0.55241222  0.58397979  0.73967094     1.37500
O202        O  0.54906368  0.57981777  0.65087491    -0.56700
O203        O  0.57245503  0.60824371  0.71835759    -0.55500
C204        C  0.52268990  0.56006447  0.75520704     0.78300
O205        O  0.55189394  0.60754737  0.73088742    -0.57900
O206        O  0.56462788  0.57477955  0.68337523    -0.56300
O207        O  0.55589536  0.58855416  0.82892585    -0.56300
O208        O  0.53394999  0.55889711  0.76071243    -0.55500
O209        O  0.68149751  0.76017878  0.13056792    -0.56700
C210        C  0.68699204  0.76772668  0.98263659     0.75900
O211        O  0.71764112  0.80334360  0.08369436    -0.57800
C212        C  0.68892140  0.76444890  0.16981534     0.75900
C213        C  0.72114109  0.76472528  0.04701359     0.78300
Cd214      Cd  0.70199621  0.77569467  0.07479995     1.37500
O215        O  0.68006590  0.76192304  0.02186982    -0.56700
O216        O  0.70759350  0.75640711  0.05548562    -0.55500
C217        C  0.70663300  0.80509133  0.07898554     0.78300
O218        O  0.72649940  0.77837399  0.05593846    -0.57900
O219        O  0.70052458  0.77707084  0.98651326    -0.56300
O220        O  0.70259436  0.77330326  0.16529975    -0.56300
O221        O  0.69426830  0.79357156  0.07352043    -0.55500
O222        O  0.76824461  0.68190106  0.83396573    -0.56700
C223        C  0.77580977  0.68834901  0.98573633     0.75900
O224        O  0.81086567  0.71807686  0.88295046    -0.57800
C225        C  0.77241792  0.68975257  0.79578367     0.75900
C226        C  0.77041274  0.71987171  0.91171309     0.78300
Cd227      Cd  0.78337529  0.70218893  0.89164033     1.37500
O228        O  0.77102418  0.68067232  0.94682127    -0.56700
O229        O  0.76306012  0.70618911  0.90255542    -0.55500
C230        C  0.81256501  0.70698276  0.88678071     0.78300
O231        O  0.78430879  0.72607027  0.90824268    -0.57900
O232        O  0.78392948  0.70212768  0.98076430    -0.56300
O233        O  0.78137458  0.70339778  0.80187823    -0.56300
O234        O  0.80111035  0.69458912  0.89240900    -0.55500
O235        O  0.35144169  0.24838840  0.47129077    -0.56700
C236        C  0.35709431  0.24855334  0.32061933     0.75900
O237        O  0.39591971  0.27649417  0.39933213    -0.57800
C238        C  0.35936008  0.25212519  0.50946876     0.75900
C239        C  0.37614965  0.22891269  0.41601086     0.78300
Cd240      Cd  0.37159454  0.25377423  0.41360687     1.37500
O241        O  0.34986922  0.24607703  0.36014872    -0.56700
O242        O  0.36394061  0.22804606  0.40801961    -0.55500
C243        C  0.39020100  0.28450751  0.39318721     0.78300
O244        O  0.38709771  0.24175749  0.42276750    -0.57900
O245        O  0.37064488  0.25293847  0.32446994    -0.56300
O246        O  0.37297172  0.25711517  0.50329247    -0.56300
O247        O  0.37654812  0.27858299  0.40071204    -0.55500
O248        O  0.43044963  0.41237656  0.18179310    -0.56700
C249        C  0.44082796  0.41671692  0.32942639     0.75900
O250        O  0.44922929  0.38625680  0.24797106    -0.57800
C251        C  0.43419651  0.40873048  0.14232070     0.75900
C252        C  0.47725477  0.43270453  0.22118685     0.78300
Cd253      Cd  0.44746011  0.40895193  0.23508271     1.37500
O254        O  0.43699353  0.42034046  0.29042960    -0.56700
O255        O  0.46620621  0.43436364  0.22204571    -0.55500
C256        C  0.43550177  0.37808331  0.25473127     0.78300
O257        O  0.47484424  0.41970312  0.22710976    -0.57900
O258        O  0.44776986  0.40989359  0.32451976    -0.56300
O259        O  0.44359639  0.40465933  0.14589912    -0.56300
O260        O  0.42771991  0.38401778  0.24943410    -0.55500
O261        O  0.23434448  0.31515387  0.12701145    -0.56700
C262        C  0.22379219  0.30858089  0.97574419     0.75900
O263        O  0.21923212  0.27111714  0.05469076    -0.57800
C264        C  0.23086811  0.30721398  0.16499623     0.75900
C265        C  0.18859161  0.28596569  0.08690615     0.78300
Cd266      Cd  0.21890864  0.29441990  0.06962606     1.37500
O267        O  0.22948328  0.31616279  0.01429392    -0.56700
O268        O  0.19923399  0.29902055  0.09012954    -0.55500
C269        C  0.23295957  0.27765571  0.04654635     0.78300
O270        O  0.19166266  0.27611322  0.07510005    -0.57900
O271        O  0.21571332  0.29482495  0.98107660    -0.56300
O272        O  0.22253844  0.29346649  0.15852011    -0.56300
O273        O  0.23999254  0.29151603  0.05174766    -0.55500
O274        O  0.32350732  0.23480053  0.85732051    -0.56700
C275        C  0.31690286  0.22865846  0.00689718     0.75900
O276        O  0.27859297  0.21874275  0.92518554    -0.57800
C277        C  0.31580513  0.23105057  0.81862486     0.75900
C278        C  0.29737059  0.19051123  0.90399082     0.78300
Cd279      Cd  0.30278111  0.22017898  0.91291319     1.37500
O280        O  0.32422093  0.23388705  0.96790674    -0.56700
O281        O  0.30995431  0.20191481  0.90261482    -0.55500
C282        C  0.28433866  0.23260611  0.93010371     0.78300
O283        O  0.28653300  0.19251106  0.90939890    -0.57900
O284        O  0.30339455  0.21933283  0.00210768    -0.56300
O285        O  0.30203611  0.22287300  0.82371119    -0.56300
O286        O  0.29805220  0.24034031  0.92332253    -0.55500
O287        O  0.24241061  0.34356851  0.62676061    -0.63900
C288        C  0.25157403  0.35099750  0.47666733     0.75900
O289        O  0.24452938  0.38349228  0.57427114    -0.57800
C290        C  0.24466743  0.35124416  0.66529948     0.75900
C291        C  0.28479843  0.38180842  0.58784129     0.78300
Cd292      Cd  0.25354897  0.36516526  0.57050871     1.37500
O293        O  0.24542534  0.34349826  0.51463921    -0.56700
O294        O  0.27762290  0.36789684  0.58427172    -0.55500
C295        C  0.23219530  0.37440528  0.55545739     0.78300
O296        O  0.27773450  0.38845460  0.58031344    -0.57900
O297        O  0.25900814  0.36487506  0.48240024    -0.56300
O298        O  0.25063933  0.36499696  0.65970791    -0.56300
O299        O  0.23038175  0.36201705  0.54293708    -0.55500
O300        O  0.41891578  0.42748853  0.68262836    -0.56700
C301        C  0.41146663  0.42819963  0.83243749     0.75900
O302        O  0.42218731  0.46832924  0.74970140    -0.57800
C303        C  0.41955713  0.43495848  0.64548832     0.75900
C304        C  0.38061070  0.42869979  0.71220740     0.78300
Cd305      Cd  0.41113460  0.44087011  0.73928794     1.37500
O306        O  0.41651373  0.42560980  0.79379751    -0.56700
O307        O  0.38643211  0.42086895  0.71872347    -0.55500
C308        C  0.43499185  0.47059501  0.75849889     0.78300
O309        O  0.38857622  0.44238296  0.72156380    -0.57900
O310        O  0.40546470  0.43597085  0.82776719    -0.56300
O311        O  0.41690741  0.44529637  0.65239169    -0.56300
O312        O  0.43648721  0.45939649  0.75822737    -0.55500
O313        O  0.98795291  0.56736151  0.18806980    -0.56700
C314        C  0.98055126  0.55594534  0.33434277     0.75900
O315        O  0.94244140  0.54985142  0.24843387    -0.57800
C316        C  0.98078550  0.56365792  0.14818236     0.75900
C317        C  0.95868746  0.52046547  0.22181007     0.78300
Cd318      Cd  0.96656063  0.55063661  0.23974430     1.37500
O319        O  0.98808002  0.56106023  0.29572322    -0.56700
O320        O  0.97150066  0.53128167  0.21624508    -0.55500
C321        C  0.94850170  0.56362570  0.25614514     0.78300
O322        O  0.94892126  0.52334836  0.23584074    -0.57900
O323        O  0.96678176  0.54835161  0.32910238    -0.56300
O324        O  0.96714190  0.55451622  0.15105509    -0.56300
O325        O  0.96236588  0.57097539  0.25357553    -0.55500
O326        O  0.90262107  0.65360090  0.34096351    -0.56700
C327        C  0.90181556  0.64518195  0.48741944     0.75900
O328        O  0.86183358  0.61517115  0.39999378    -0.57800
C329        C  0.89614816  0.64662810  0.30225202     0.75900
C330        C  0.90086852  0.61252739  0.37193660     0.78300
Cd331      Cd  0.88933744  0.63172900  0.39427767     1.37500
O332        O  0.90527611  0.65273193  0.44864531    -0.56700
O333        O  0.90880894  0.62635605  0.37640303    -0.55500
C334        C  0.85972562  0.62585676  0.40852217     0.78300
O335        O  0.88726468  0.60702196  0.38067335    -0.57900
O336        O  0.89317826  0.63141758  0.48276475    -0.56300
O337        O  0.88650207  0.63319527  0.30672380    -0.56300
O338        O  0.87098971  0.63854100  0.41051026    -0.55500
O339        O  0.08297584  0.75935423  0.13676269    -0.56700
C340        C  0.08399044  0.76696552  0.98721579     0.75900
O341        O  0.05585715  0.77747969  0.06691834    -0.57800
C342        C  0.07867925  0.76266999  0.17570096     0.75900
C343        C  0.10337963  0.80447545  0.08948147     0.78300
Cd344      Cd  0.07802664  0.77498509  0.08180920     1.37500
O345        O  0.08509522  0.76086056  0.02557036    -0.56700
O346        O  0.10407553  0.79291361  0.08330454    -0.55500
C347        C  0.04751677  0.76377198  0.05876485     0.78300
O348        O  0.09058386  0.80274424  0.09296497    -0.57900
O349        O  0.08033617  0.77664311  0.99299750    -0.56300
O350        O  0.07356230  0.77121989  0.17119638    -0.56300
O351        O  0.05301409  0.75564418  0.06508599    -0.55500
O352        O  0.91393549  0.67824215  0.94892562    -0.56700
C353        C  0.92275589  0.68819920  0.79825614     0.75900
O354        O  0.91354050  0.71690669  0.89042966    -0.57800
C355        C  0.91713983  0.68586224  0.98809771     0.75900
C356        C  0.95451347  0.71788660  0.91556786     0.78300
Cd357      Cd  0.92391354  0.70008927  0.89488250     1.37500
O358        O  0.91918608  0.68016011  0.83595934    -0.56700
O359        O  0.94820042  0.70412418  0.90801466    -0.55500
C360        C  0.90042700  0.70618854  0.89235412     0.78300
O361        O  0.94685105  0.72399406  0.90995872    -0.57900
O362        O  0.92706921  0.70171438  0.80520157    -0.56300
O363        O  0.92325676  0.69967312  0.98364342    -0.56300
O364        O  0.89865964  0.69340355  0.89489368    -0.55500
O365        O  0.09593362  0.74487839  0.52563272    -0.56700
C366        C  0.10573890  0.74649893  0.67494619     0.75900
O367        O  0.11383073  0.71736229  0.58591565    -0.57800
C368        C  0.09933695  0.74101106  0.48589352     0.75900
C369        C  0.14183256  0.76394773  0.56822146     0.78300
Cd370      Cd  0.11218551  0.74005644  0.57848641     1.37500
O371        O  0.10094314  0.74960941  0.63706306    -0.56700
O372        O  0.13065127  0.76539416  0.56972349    -0.55500
C373        C  0.10027106  0.70942882  0.59603098     0.78300
O374        O  0.13960622  0.75094067  0.57150403    -0.57900
O375        O  0.11360683  0.74071723  0.66811922    -0.56300
O376        O  0.10814496  0.73618390  0.48913850    -0.56300
O377        O  0.09252622  0.71548486  0.59425926    -0.55500
O378        O  0.01538830  0.57830349  0.79896710    -0.56700
C379        C  0.02144666  0.57536532  0.64828919     0.75900
O380        O  0.05965519  0.60679087  0.72849384    -0.57800
C381        C  0.02317052  0.58313263  0.83744948     0.75900
C382        C  0.04193601  0.56015284  0.75667710     0.78300
Cd383      Cd  0.03578100  0.58362051  0.74264711     1.37500
O384        O  0.03483023  0.57930359  0.65385925    -0.56700
O385        O  0.05243154  0.57292183  0.74629496    -0.55500
C386        C  0.05356280  0.61445157  0.72241188     0.78300
O387        O  0.02932054  0.55868520  0.76056003    -0.57900
O388        O  0.01437655  0.57485151  0.68662060    -0.56300
O389        O  0.03690833  0.58866928  0.83218322    -0.56300
O390        O  0.03981992  0.60804315  0.72877877    -0.55500
O391        O  0.91644015  0.23472670  0.84759913    -0.56700
C392        C  0.91455317  0.22650798  0.99562907     0.75900
O393        O  0.91090143  0.19162937  0.89278818    -0.57800
C394        C  0.92108354  0.23189052  0.80850378     0.75900
C395        C  0.95239548  0.23084824  0.92040801     0.78300
Cd396      Cd  0.92164947  0.21911779  0.90111447     1.37500
O397        O  0.91341815  0.23246712  0.95700832    -0.56700
O398        O  0.94676191  0.23880943  0.91294677    -0.55500
C399        C  0.89794993  0.18919305  0.88634786     0.78300
O400        O  0.94398219  0.21703023  0.91560084    -0.57900
O401        O  0.91856915  0.21710700  0.99025489    -0.56300
O402        O  0.92643354  0.22351840  0.81225006    -0.56300
O403        O  0.89634114  0.20031895  0.88652091    -0.55500
O404        O  0.08309252  0.31350801  0.12499311    -0.56700
C405        C  0.08766266  0.30747004  0.97707796     0.75900
O406        O  0.08837885  0.27534876  0.07393830    -0.57800
C407        C  0.07857737  0.30591448  0.16372309     0.75900
C408        C  0.04740787  0.27495019  0.04857020     0.78300
Cd409      Cd  0.07829412  0.29267903  0.07039323     1.37500
O410        O  0.08993515  0.31482533  0.01639201    -0.56700
O411        O  0.05386964  0.28875020  0.05509596    -0.55500
C412        C  0.10065676  0.28521665  0.09106544     0.78300
O413        O  0.05497684  0.26879223  0.05530708    -0.57900
O414        O  0.08166129  0.29366700  0.98131299    -0.56300
O415        O  0.07317442  0.29212060  0.15893781    -0.56300
O416        O  0.10215275  0.29778294  0.09826643    -0.55500
O417        O  0.90486942  0.25073658  0.46063828    -0.56700
C418        C  0.89545005  0.24721346  0.31168917     0.75900
O419        O  0.86057167  0.24198294  0.41417261    -0.57800
C420        C  0.90094665  0.25433378  0.49985723     0.75900
C421        C  0.89944909  0.28433235  0.38593645     0.78300
Cd422      Cd  0.88803781  0.25388296  0.40638445     1.37500
O423        O  0.89977576  0.24401651  0.35052839    -0.56700
O424        O  0.90740697  0.27891835  0.39677624    -0.55500
C425        C  0.85887043  0.22918138  0.41795418     0.78300
O426        O  0.88562480  0.27582097  0.38841671    -0.57900
O427        O  0.88771827  0.25319230  0.31690600    -0.56300
O428        O  0.89148725  0.25832802  0.49581596    -0.56300
O429        O  0.87035746  0.22826261  0.41694101    -0.55500
O430        O  0.98619062  0.41506563  0.18347328    -0.56700
C431        C  0.97819762  0.41880871  0.33287976     0.75900
O432        O  0.94787326  0.41999819  0.23304687    -0.57800
C433        C  0.97866598  0.40998202  0.14453332     0.75900
C434        C  0.94648817  0.37894178  0.25593739     0.78300
Cd435      Cd  0.96488209  0.40978116  0.23670221     1.37500
O436        O  0.98595152  0.42033877  0.29537035    -0.56700
O437        O  0.96035963  0.38539927  0.25503896    -0.55500
C438        C  0.95772366  0.43225950  0.21619268     0.78300
O439        O  0.94064156  0.38651844  0.24449401    -0.57900
O440        O  0.96461181  0.41353673  0.32570408    -0.56300
O441        O  0.96488211  0.40426089  0.14871269    -0.56300
O442        O  0.97021716  0.43371062  0.20890560    -0.55500
O443        O  0.09730937  0.34153687  0.51441463    -0.56700
C444        C  0.10700369  0.34803977  0.66340787     0.75900
O445        O  0.13959428  0.38052386  0.57126859    -0.57800
C446        C  0.09997610  0.34906310  0.47571724     0.75900
C447        C  0.09899266  0.38025944  0.59288133     0.78300
Cd448      Cd  0.11226684  0.36267647  0.56997264     1.37500
O449        O  0.10074984  0.34076176  0.62485742    -0.56700
O450        O  0.09169498  0.36637342  0.58848771    -0.55500
C451        C  0.14271117  0.37111363  0.55477602     0.78300
O452        O  0.11258948  0.38648451  0.58297966    -0.57900
O453        O  0.11572089  0.36168350  0.65833985    -0.56300
O454        O  0.10775362  0.36293826  0.48066425    -0.56300
O455        O  0.13199651  0.35848064  0.54479448    -0.55500
O456        O  0.01287449  0.42663786  0.79321753    -0.56700
C457        C  0.02004259  0.43725290  0.64530302     0.75900
O458        O  0.02980076  0.46108139  0.76636756    -0.57800
C459        C  0.02035000  0.42947665  0.83230174     0.75900
C460        C  0.05252429  0.42895437  0.72112291     0.78300
Cd461      Cd  0.03431326  0.44182517  0.73942702     1.37500
O462        O  0.01265029  0.43049616  0.68274900    -0.56700
O463        O  0.03864508  0.42152426  0.72232721    -0.55500
C464        C  0.04219169  0.47202664  0.75640528     0.78300
O465        O  0.05844206  0.44261118  0.73088875    -0.57900
O466        O  0.03364180  0.44587726  0.65168621    -0.56300
O467        O  0.03416649  0.43741152  0.82807422    -0.56300
O468        O  0.05178890  0.46929265  0.73943300    -0.55500
C469        C  0.08899418  0.40498517  0.64273699     0.30900
C470        C  0.09099263  0.41832435  0.66246484    -0.35400
C471        C  0.07827754  0.41798855  0.68042995     0.16900
C472        C  0.06462974  0.40535170  0.67922009     0.22700
C473        C  0.06267380  0.39208258  0.65999995    -0.33600
C474        C  0.07527365  0.39245797  0.64177171     0.16800
O475        O  0.09925492  0.40263486  0.62404553    -0.25600
C476        C  0.09191057  0.38843676  0.61089426     0.06600
C477        C  0.07697677  0.38162226  0.62103392    -0.30500
O478        O  0.05409226  0.40754837  0.69518571    -0.22300
C479        C  0.06094021  0.42178613  0.70696311    -0.02300
C480        C  0.07606352  0.42888628  0.69888669    -0.16700
H481        H  0.10165624  0.42829697  0.66314358     0.21300
H482        H  0.05196057  0.38216832  0.65853218     0.19600
H483        H  0.06863295  0.37018638  0.61520781     0.19600
H484        H  0.08408639  0.44046732  0.70362575     0.15500
C485        C  0.99784211  0.42866779  0.54040057     0.30900
C486        C  0.98476386  0.42250139  0.51303416    -0.35400
C487        C  0.98639895  0.42382690  0.46187923     0.16900
C488        C  0.99994888  0.43067866  0.43918716     0.22700
C489        C  0.01299861  0.43706418  0.46655452    -0.33600
C490        C  0.01136704  0.43579011  0.51759769     0.16800
O491        O  0.99895840  0.42819851  0.58851735    -0.25600
C492        C  0.01339601  0.43522508  0.59645442     0.06600
C493        C  0.02162069  0.44024173  0.55371503    -0.30500
O494        O  0.99892854  0.42998960  0.39092196    -0.22300
C495        C  0.98453001  0.42271651  0.38250390    -0.02300
C496        C  0.97619742  0.41867372  0.42527934    -0.16700
H497        H  0.97407862  0.41682090  0.53031105     0.21300
H498        H  0.02368212  0.44239468  0.44922584     0.19600
H499        H  0.03345193  0.44602320  0.54980936     0.19600
H500        H  0.96435646  0.41245147  0.42879979     0.15500
C501        C  0.98754433  0.41051352  0.02007393     0.30900
C502        C  0.98476919  0.40890935  0.96936362    -0.35400
C503        C  0.99717432  0.41504165  0.93878495     0.16900
C504        C  0.01133998  0.42218749  0.95690231     0.22700
C505        C  0.01411202  0.42365038  0.00760040    -0.33600
C506        C  0.00171094  0.41759633  0.03817459     0.16800
O507        O  0.97760878  0.40651328  0.05509529    -0.25600
C508        C  0.98548046  0.41104942  0.09626266     0.06600
C509        C  0.00055577  0.41798633  0.08796395    -0.30500
O510        O  0.02130216  0.42783677  0.92188744    -0.22300
C511        C  0.01345308  0.42425138  0.88069332    -0.02300
C512        C  0.99835962  0.41624888  0.88896397    -0.16700
H513        H  0.97371436  0.40366413  0.95477980     0.21300
H514        H  0.02517333  0.42951508  0.02217542     0.19600
H515        H  0.00936700  0.42311240  0.11455051     0.19600
H516        H  0.98956995  0.41238154  0.86230943     0.15500
C517        C  0.93422546  0.34409441  0.30447857     0.30900
C518        C  0.93607727  0.33326824  0.32708003    -0.35400
C519        C  0.92323720  0.32073962  0.34234308     0.16900
C520        C  0.90938951  0.31878091  0.33555212     0.22700
C521        C  0.90751902  0.32972374  0.31288826    -0.33600
C522        C  0.92048342  0.34243097  0.29783353     0.16800
O523        O  0.94488802  0.35683286  0.28896641    -0.25600
C524        C  0.93803393  0.36358193  0.27208965     0.06600
C525        C  0.92279345  0.35517490  0.27652737    -0.30500
O526        O  0.89892098  0.30582105  0.35151666    -0.22300
C527        C  0.90631073  0.29961611  0.36898343    -0.02300
C528        C  0.92142519  0.30843662  0.36425460    -0.16700
H529        H  0.94684388  0.33456808  0.33262601     0.21300
H530        H  0.89676012  0.32843708  0.30744086     0.19600
H531        H  0.91470196  0.35819181  0.26694487     0.19600
H532        H  0.92985820  0.30589393  0.37393830     0.15500
C533        C  0.10453591  0.33954433  0.78830191     0.30900
C534        C  0.10689787  0.34257008  0.83880015    -0.35400
C535        C  0.10008653  0.33032245  0.86981735     0.16900
C536        C  0.09165152  0.31609461  0.85221277     0.22700
C537        C  0.08922123  0.31308549  0.80179374    -0.33600
C538        C  0.09594331  0.32532488  0.77083188     0.16800
O539        O  0.10968038  0.34932320  0.75283045    -0.25600
C540        C  0.10426906  0.34127807  0.71213082     0.06600
C541        C  0.09562207  0.32626309  0.72106504    -0.30500
O542        O  0.08636858  0.30629113  0.88753476    -0.22300
C543        C  0.09138935  0.31430620  0.92841050    -0.02300
C544        C  0.09995610  0.32936042  0.91972688    -0.16700
H545        H  0.11350205  0.35368507  0.85288435     0.21300
H546        H  0.08250426  0.30198431  0.78773340     0.19600
H547        H  0.08986923  0.31738944  0.69480881     0.19600
H548        H  0.10528816  0.33824052  0.94622721     0.15500
C549        C  0.09205486  0.33947120  0.35106954     0.30900
C550        C  0.09273905  0.34193785  0.30031707    -0.35400
C551        C  0.08685077  0.32932586  0.27009540     0.16900
C552        C  0.08070780  0.31524541  0.28849919     0.22700
C553        C  0.07993683  0.31277408  0.33921252    -0.33600
C554        C  0.08581308  0.32537752  0.36941822     0.16800
O555        O  0.09754040  0.34967923  0.38591177    -0.25600
C556        C  0.09470771  0.34202010  0.42717842     0.06600
C557        C  0.08739994  0.32685173  0.41907093    -0.30500
O558        O  0.07656652  0.30511652  0.25362925    -0.22300
C559        C  0.08004934  0.31278991  0.21227389    -0.02300
C560        C  0.08645637  0.32790360  0.22029592    -0.16700
H561        H  0.09781772  0.35293710  0.28539700     0.21300
H562        H  0.07538072  0.30180973  0.35405787     0.19600
H563        H  0.08420051  0.31820503  0.44577675     0.19600
H564        H  0.09070779  0.33659755  0.19338587     0.15500
C565        C  0.98740058  0.24009004  0.96408386     0.30900
C566        C  0.99870673  0.23779796  0.98094113    -0.35400
C567        C  0.01113217  0.25022037  0.00094054     0.16900
C568        C  0.01225079  0.26387160  0.00415279     0.22700
C569        C  0.00105491  0.26616394  0.98717885    -0.33600
C570        C  0.98877433  0.25385157  0.96699169     0.16800
O571        O  0.97455467  0.23003100  0.94567365    -0.25600
C572        C  0.96779167  0.23758811  0.93637764     0.06600
C573        C  0.97618121  0.25243411  0.94868701    -0.30500
O574        O  0.02485671  0.27405064  0.02283606    -0.22300
C575        C  0.03203278  0.26693832  0.03188851    -0.02300
C576        C  0.02403978  0.25203906  0.01909987    -0.16700
H577        H  0.99786760  0.22710865  0.97873364     0.21300
H578        H  0.00188969  0.27685452  0.98940727     0.19600
H579        H  0.97315222  0.26084641  0.94645574     0.19600
H580        H  0.02743857  0.24390867  0.02129211     0.15500
C581        C  0.91019470  0.23057489  0.12097147     0.30900
C582        C  0.91068020  0.22805556  0.17115056    -0.35400
C583        C  0.90602089  0.23543115  0.20292370     0.16900
C584        C  0.90112764  0.24459236  0.18641465     0.22700
C585        C  0.90078907  0.24724495  0.13619609    -0.33600
C586        C  0.90550718  0.23989697  0.10438363     0.16800
O587        O  0.91388057  0.22464888  0.08497364    -0.25600
C588        C  0.91158320  0.23025510  0.04471550     0.06600
C589        C  0.90640370  0.23986019  0.05447147    -0.30500
O590        O  0.89683997  0.24996899  0.22248586    -0.22300
C591        C  0.89912672  0.24426762  0.26257569    -0.02300
C592        C  0.90489318  0.23519043  0.25271053    -0.16700
H593        H  0.91433218  0.22075820  0.18445461     0.21300
H594        H  0.89698274  0.25441571  0.12287040     0.19600
H595        H  0.90365652  0.24585679  0.02861935     0.19600
H596        H  0.90755702  0.22908368  0.27836812     0.15500
C597        C  0.90871708  0.25304569  0.62403446     0.30900
C598        C  0.90708623  0.25389549  0.67485443    -0.35400
C599        C  0.91329334  0.24755603  0.70433706     0.16900
C600        C  0.92060402  0.24083293  0.68519129     0.22700
C601        C  0.92243500  0.24019005  0.63442367    -0.33600
C602        C  0.91624298  0.24654001  0.60495031     0.16800
O603        O  0.90277411  0.25716238  0.58964678    -0.25600
C604        C  0.90663928  0.25333939  0.54799675     0.06600
C605        C  0.91511366  0.24678673  0.55530549    -0.30500
O606        O  0.92464892  0.23474810  0.71926776    -0.22300
C607        C  0.91994464  0.23768654  0.76082811    -0.02300
C608        C  0.91285890  0.24567941  0.75377681    -0.16700
H609        H  0.90096305  0.25869796  0.69026194     0.21300
H610        H  0.92787359  0.23468473  0.61891234     0.19600
H611        H  0.91912703  0.24212455  0.52807931     0.19600
H612        H  0.90762016  0.24906440  0.78093368     0.15500
C613        C  0.05168294  0.53266689  0.75871197     0.30900
C614        C  0.05969495  0.52561374  0.74698993    -0.35400
C615        C  0.05274622  0.51045226  0.75763854     0.16900
C616        C  0.03897193  0.50293815  0.77866276     0.22700
C617        C  0.03111235  0.50995167  0.79073455    -0.33600
C618        C  0.03793917  0.52491675  0.77976730     0.16800
O619        O  0.05539701  0.54645213  0.74888815    -0.25600
C620        C  0.04379471  0.54733029  0.76385132     0.06600
C621        C  0.03269576  0.53427676  0.78337530    -0.30500
O622        O  0.03395964  0.48874392  0.78229777    -0.22300
C623        C  0.04457835  0.48693406  0.76356264    -0.02300
C624        C  0.05664866  0.50006779  0.74770572    -0.16700
H625        H  0.07030181  0.53137842  0.72920468     0.21300
H626        H  0.02013653  0.50398702  0.80587208     0.19600
H627        H  0.02202067  0.53187242  0.79660741     0.19600
H628        H  0.06642911  0.50159400  0.72933386     0.15500
C629        C  0.07776415  0.67426119  0.64234789     0.30900
C630        C  0.06483489  0.66298014  0.66281661    -0.35400
C631        C  0.06545450  0.65077962  0.67948784     0.16900
C632        C  0.07789916  0.64961197  0.67613397     0.22700
C633        C  0.09094455  0.66100714  0.65567541    -0.33600
C634        C  0.09034642  0.67332889  0.63902258     0.16800
O635        O  0.07960390  0.68678421  0.62591595    -0.25600
C636        C  0.09354163  0.69408476  0.61172485     0.06600
C637        C  0.10084268  0.68628790  0.61886384    -0.30500
O638        O  0.07567597  0.63683354  0.69251298    -0.22300
C639        C  0.06166050  0.62988179  0.70660712    -0.02300
C640        C  0.05482976  0.63808213  0.69948944    -0.16700
H641        H  0.05495770  0.66368381  0.66560557     0.21300
H642        H  0.10081552  0.66030048  0.65282068     0.19600
H643        H  0.11226676  0.68984754  0.61188897     0.19600
H644        H  0.04348096  0.63488736  0.70628280     0.15500
C645        C  0.01286458  0.74154126  0.00671618     0.30900
C646        C  0.00172801  0.72859291  0.98513111    -0.35400
C647        C  0.99008697  0.72948004  0.96453202     0.16900
C648        C  0.98925258  0.74217338  0.96542427     0.22700
C649        C  0.00052564  0.75525255  0.98684578    -0.33600
C650        C  0.01232951  0.75440254  0.00728750     0.16800
O651        O  0.02493596  0.74315160  0.02658242    -0.25600
C652        C  0.03239684  0.75724479  0.04014326     0.06600
C653        C  0.02509559  0.76484796  0.02920096    -0.30500
O654        O  0.97682667  0.74010906  0.94625278    -0.22300
C655        C  0.96980195  0.72595450  0.93271825    -0.02300
C656        C  0.97760358  0.71888548  0.94292622    -0.16700
H657        H  0.00212278  0.71849148  0.98443214     0.21300
H658        H  0.00009224  0.76532836  0.98773618     0.19600
H659        H  0.02887455  0.77642991  0.03486410     0.19600
H660        H  0.97419480  0.70736935  0.93757885     0.15500
C661        C  0.09412667  0.75484762  0.88196817     0.30900
C662        C  0.10042359  0.74803717  0.85471716    -0.35400
C663        C  0.10036811  0.74947760  0.80361689     0.16900
C664        C  0.09441515  0.75697367  0.78091641     0.22700
C665        C  0.08817796  0.76380478  0.80811899    -0.33600
C666        C  0.08834646  0.76247578  0.85910679     0.16800
O667        O  0.09320196  0.75515764  0.93019810    -0.25600
C668        C  0.08684303  0.76317815  0.93810026     0.06600
C669        C  0.08357792  0.76800390  0.89524654    -0.30500
O670        O  0.09548353  0.75691928  0.73278979    -0.22300
C671        C  0.10229378  0.74937169  0.72449784    -0.02300
C672        C  0.10562931  0.74447833  0.76716106    -0.16700
H673        H  0.10512376  0.74214560  0.87209053     0.21300
H674        H  0.08361119  0.76982227  0.79076785     0.19600
H675        H  0.07853179  0.77471452  0.89138614     0.19600
H676        H  0.11105984  0.73811683  0.77068341     0.15500
C677        C  0.09133322  0.74241287  0.36193788     0.30900
C678        C  0.09240188  0.74090237  0.31113484    -0.35400
C679        C  0.08652388  0.74749127  0.28131732     0.16900
C680        C  0.08002678  0.75505885  0.30013282     0.22700
C681        C  0.07880631  0.75642747  0.35098844    -0.33600
C682        C  0.08468212  0.74982317  0.38084208     0.16800
O683        O  0.09695326  0.73795649  0.39634975    -0.25600
C684        C  0.09379311  0.74247180  0.43795767     0.06600
C685        C  0.08609477  0.74985618  0.43056315    -0.30500
O686        O  0.07604612  0.76107404  0.26555815    -0.22300
C687        C  0.07998722  0.75725556  0.22402942    -0.02300
C688        C  0.08651624  0.74875929  0.23163761    -0.16700
H689        H  0.09782298  0.73534417  0.29591271     0.21300
H690        H  0.07398283  0.76256179  0.36621065     0.19600
H691        H  0.08266767  0.75508080  0.45770278     0.19600
H692        H  0.09109225  0.74461079  0.20459133     0.15500
C693        C  0.91573542  0.66806213  0.59126300     0.30900
C694        C  0.92167050  0.68129677  0.61828564    -0.35400
C695        C  0.92145133  0.67994138  0.66951017     0.16900
C696        C  0.91589423  0.66651205  0.69248447     0.22700
C697        C  0.91009187  0.65333039  0.66549032    -0.33600
C698        C  0.91018097  0.65466690  0.61443388     0.16800
O699        O  0.91396678  0.66660104  0.54323230    -0.25600
C700        C  0.90717982  0.65208100  0.53575945     0.06600
C701        C  0.90455973  0.64413596  0.57871417    -0.30500
O702        O  0.91597496  0.66767668  0.74065273    -0.22300
C703        C  0.92163753  0.68203729  0.74878809    -0.02300
C704        C  0.92530925  0.69022876  0.70589577    -0.16700
H705        H  0.92573191  0.69184427  0.60071119     0.21300
H706        H  0.90538712  0.64272068  0.68313572     0.19600
H707        H  0.89888226  0.63229333  0.58307112     0.19600
H708        H  0.92967249  0.70195989  0.70211133     0.15500
C709        C  0.89995776  0.65492540  0.17778324     0.30900
C710        C  0.89752256  0.65171242  0.12758378    -0.35400
C711        C  0.90500087  0.66369858  0.09614167     0.16900
C712        C  0.91416342  0.67788913  0.11302683     0.22700
C713        C  0.91672571  0.68109157  0.16331053    -0.33600
C714        C  0.90928639  0.66906653  0.19479470     0.16800
O715        O  0.89404172  0.64535420  0.21341443    -0.25600
C716        C  0.89967269  0.65340586  0.25381828     0.06600
C717        C  0.90927069  0.66826508  0.24466389    -0.30500
O718        O  0.91966959  0.68747183  0.07718014    -0.22300
C719        C  0.91405820  0.67929536  0.03689948    -0.02300
C720        C  0.90489422  0.66440178  0.04634681    -0.16700
H721        H  0.89025696  0.64065007  0.11404280     0.21300
H722        H  0.92392340  0.69216812  0.17687086     0.19600
H723        H  0.91534256  0.67709949  0.27079184     0.19600
H724        H  0.89882270  0.65549821  0.02045118     0.15500
C725        C  0.94766241  0.45940073  0.21342137     0.30900
C726        C  0.94034597  0.46682997  0.22898378    -0.35400
C727        C  0.94718022  0.48187670  0.21709159     0.16900
C728        C  0.96024685  0.48899224  0.19152089     0.22700
C729        C  0.96730871  0.48153354  0.17498559    -0.33600
C730        C  0.96057265  0.46663513  0.18708147     0.16800
O731        O  0.94433486  0.44587905  0.22537421    -0.25600
C732        C  0.95529993  0.44459160  0.20632858     0.06600
C733        C  0.96558781  0.45711030  0.18181150    -0.30500
O734        O  0.96558800  0.50328009  0.18877846    -0.22300
C735        C  0.95580847  0.50547221  0.21235573    -0.02300
C736        C  0.94400926  0.49254674  0.23053559    -0.16700
H737        H  0.93049014  0.46148511  0.25107085     0.21300
H738        H  0.97780095  0.48717808  0.15639095     0.19600
H739        H  0.97584535  0.45924176  0.16545586     0.19600
H740        H  0.93499480  0.49135286  0.25298657     0.15500
C741        C  0.92350867  0.57464006  0.29423413     0.30900
C742        C  0.91008646  0.57311629  0.31034302    -0.35400
C743        C  0.91065879  0.58608424  0.32764777     0.16900
C744        C  0.92355599  0.59952523  0.32882631     0.22700
C745        C  0.93684089  0.60104303  0.31261262    -0.33600
C746        C  0.93625821  0.58819773  0.29538756     0.16800
O747        O  0.92582912  0.56401084  0.27854074    -0.25600
C748        C  0.94023195  0.57100194  0.26947482     0.06600
C749        C  0.94718152  0.58603241  0.27911352    -0.30500
O750        O  0.92173812  0.61026226  0.34565400    -0.22300
C751        C  0.90748099  0.60376362  0.35565254    -0.02300
C752        C  0.89996576  0.58867472  0.34524573    -0.16700
H753        H  0.89996594  0.56257753  0.30982331     0.21300
H754        H  0.94699511  0.61155923  0.31357370     0.19600
H755        H  0.95877255  0.59412158  0.27641174     0.19600
H756        H  0.88833549  0.58088143  0.34898517     0.15500
C757        C  0.01266979  0.56969506  0.52321103     0.30900
C758        C  0.01546267  0.57001565  0.47274454    -0.35400
C759        C  0.00324784  0.56518326  0.44178643     0.16900
C760        C  0.98923535  0.56022415  0.45934023     0.22700
C761        C  0.98646171  0.55998166  0.50974490    -0.33600
C762        C  0.99868748  0.56494044  0.54066166     0.16800
O763        O  0.02246885  0.57384791  0.55870418    -0.25600
C764        C  0.01466801  0.57178225  0.59937126     0.06600
C765        C  0.99981601  0.56629603  0.59039324    -0.30500
O766        O  0.97943350  0.55619745  0.42395626    -0.22300
C767        C  0.98727574  0.55873027  0.38318059    -0.02300
C768        C  0.00216649  0.56435164  0.39194933    -0.16700
H769        H  0.02640061  0.57385833  0.45861603     0.21300
H770        H  0.97554566  0.55626822  0.52384590     0.19600
H771        H  0.99115295  0.56372996  0.61666289     0.19600
H772        H  0.01087735  0.56735909  0.36548956     0.15500
C773        C  0.01424022  0.58313795  0.96190778     0.30900
C774        C  0.01681279  0.58555981  0.01267856    -0.35400
C775        C  0.00428994  0.57895381  0.04286281     0.16900
C776        C  0.99024955  0.57058802  0.02422062     0.22700
C777        C  0.98768428  0.56834343  0.97365995    -0.33600
C778        C  0.00014686  0.57490632  0.94362422     0.16800
O779        O  0.02429786  0.58745267  0.92704468    -0.25600
C780        C  0.01648625  0.58197427  0.88600133     0.06600
C781        C  0.00142016  0.57412793  0.89421162    -0.30500
O782        O  0.98021196  0.56458935  0.05874549    -0.22300
C783        C  0.98783207  0.56916185  0.10028572    -0.02300
C784        C  0.00288802  0.57821442  0.09275380    -0.16700
H785        H  0.02780940  0.59176307  0.02765271     0.21300
H786        H  0.97673725  0.56155768  0.95882729     0.19600
H787        H  0.99269962  0.56821964  0.86775859     0.19600
H788        H  0.01155175  0.58295864  0.11995387     0.15500
C789        C  0.19894382  0.37239792  0.52883012     0.30900
C790        C  0.18460236  0.36522068  0.51053502    -0.35400
C791        C  0.17560636  0.37057132  0.52697877     0.16900
C792        C  0.18032176  0.38232004  0.55910908     0.22700
C793        C  0.19486314  0.38967058  0.57726145    -0.33600
C794        C  0.20394793  0.38421594  0.56084771     0.16800
O795        O  0.20854924  0.36812766  0.52145284    -0.25600
C796        C  0.22004324  0.37729981  0.54861335     0.06600
C797        C  0.21791841  0.38769115  0.57389706    -0.30500
O798        O  0.16953189  0.38467111  0.57204526    -0.22300
C799        C  0.15787468  0.37422214  0.54782716    -0.02300
C800        C  0.16108131  0.36521043  0.51930836    -0.16700
H801        H  0.18053141  0.35565508  0.48665361     0.21300
H802        H  0.19863874  0.39860056  0.60370083     0.19600
H803        H  0.22512451  0.39583580  0.60047094     0.19600
H804        H  0.15359604  0.35563483  0.49770682     0.15500
C805        C  0.34521300  0.40580864  0.66479511     0.30900
C806        C  0.33320952  0.39243379  0.64876159    -0.35400
C807        C  0.32123784  0.39316616  0.62998745     0.16900
C808        C  0.32099837  0.40615179  0.62715405     0.22700
C809        C  0.33309391  0.41959736  0.64296829    -0.33600
C810        C  0.34512099  0.41887006  0.66189079     0.16800
O811        O  0.35750723  0.40757501  0.68360241    -0.25600
C812        C  0.36546704  0.42195690  0.69320421     0.06600
C813        C  0.35833319  0.42957612  0.68036587    -0.30500
O814        O  0.30831928  0.40408460  0.61035562    -0.22300
C815        C  0.30042248  0.38959512  0.60216082    -0.02300
C816        C  0.30795138  0.38229790  0.61358281    -0.16700
H817        H  0.33315351  0.38212183  0.65120035     0.21300
H818        H  0.33305449  0.42986795  0.64125415     0.19600
H819        H  0.36237736  0.44128413  0.68350617     0.19600
H820        H  0.30397227  0.37057513  0.61189451     0.15500
C821        C  0.12762946  0.27489912  0.09594094     0.30900
C822        C  0.13487736  0.26724155  0.08189532    -0.35400
C823        C  0.14999639  0.27423894  0.09303542     0.16900
C824        C  0.15731737  0.28776440  0.11652632     0.22700
C825        C  0.15005477  0.29516330  0.13160885    -0.33600
C826        C  0.13510732  0.28826856  0.12027617     0.16800
O827        O  0.11405700  0.27144534  0.08418277    -0.25600
C828        C  0.11299017  0.28279808  0.10137101     0.06600
C829        C  0.12570967  0.29345061  0.12450616    -0.30500
O830        O  0.17158280  0.29317024  0.11863014    -0.22300
C831        C  0.17361744  0.28300801  0.09671783    -0.02300
C832        C  0.16055650  0.27084310  0.08034446    -0.16700
H833        H  0.12933693  0.25699428  0.06136404     0.21300
H834        H  0.15586933  0.30599452  0.14850319     0.19600
H835        H  0.12803737  0.30401781  0.13925075     0.19600
H836        H  0.15918579  0.26144806  0.05931044     0.15500
C837        C  0.23380288  0.33091553  0.87138667     0.30900
C838        C  0.24005855  0.34408519  0.84476890    -0.35400
C839        C  0.23930720  0.34255978  0.79350962     0.16900
C840        C  0.23292559  0.32903446  0.76997390     0.22700
C841        C  0.22658036  0.31587481  0.79657850    -0.33600
C842        C  0.22725730  0.31739574  0.84779022     0.16800
O843        O  0.23346680  0.32972145  0.91959777    -0.25600
C844        C  0.22650557  0.31523722  0.92685964     0.06600
C845        C  0.22238085  0.30704617  0.88351979    -0.30500
O846        O  0.23380906  0.33020310  0.72178064    -0.22300
C847        C  0.24078377  0.34467176  0.71435197    -0.02300
C848        C  0.24443118  0.35289314  0.75763871    -0.16700
H849        H  0.24523942  0.35475725  0.86271518     0.21300
H850        H  0.22156800  0.30520802  0.77863361     0.19600
H851        H  0.21679076  0.29518961  0.87906183     0.19600
H852        H  0.25025058  0.36475983  0.76197377     0.15500
C853        C  0.24534049  0.32927832  0.27096824     0.30900
C854        C  0.25303335  0.34245704  0.29815086    -0.35400
C855        C  0.25103276  0.34126003  0.34923035     0.16900
C856        C  0.24207670  0.32801837  0.37213271     0.22700
C857        C  0.23450919  0.31481430  0.34499854    -0.33600
C858        C  0.23653793  0.31600756  0.29393096     0.16800
O859        O  0.24490181  0.32796751  0.22264191    -0.25600
C860        C  0.23578039  0.31363366  0.21451931     0.06600
C861        C  0.23032133  0.30566676  0.25758180    -0.30500
O862        O  0.24127172  0.32956444  0.42002616    -0.22300
C863        C  0.24987909  0.34399779  0.42798473    -0.02300
C864        C  0.25624927  0.35179015  0.38522580    -0.16700
H865        H  0.25981519  0.35296461  0.28061453     0.21300
H866        H  0.22728026  0.30438827  0.36236127     0.19600
H867        H  0.22240005  0.29405179  0.26140752     0.19600
H868        H  0.26335637  0.36356364  0.38113068     0.15500
C869        C  0.25746709  0.26675935  0.00420861     0.30900
C870        C  0.27102975  0.26892191  0.98790614    -0.35400
C871        C  0.27113559  0.25629734  0.97161418     0.16900
C872        C  0.25878836  0.24241810  0.97158504     0.22700
C873        C  0.24517875  0.24025285  0.98798297    -0.33600
C874        C  0.24504406  0.25293196  0.00412570     0.16800
O875        O  0.25486476  0.27710630  0.02002288    -0.25600
C876        C  0.24058581  0.26987073  0.03038396     0.06600
C877        C  0.23387690  0.25478231  0.02121290    -0.30500
O878        O  0.26156550  0.23213699  0.95569974    -0.22300
C879        C  0.27585142  0.23960715  0.94515389    -0.02300
C880        C  0.28232582  0.25465323  0.95435745    -0.16700
H881        H  0.28083653  0.27973654  0.98777614     0.21300
H882        H  0.23538128  0.22944454  0.98814206     0.19600
H883        H  0.22241982  0.24647318  0.02557059     0.19600
H884        H  0.29375179  0.26310699  0.95021811     0.15500
C885        C  0.42579818  0.43299125  0.52042829     0.30900
C886        C  0.42663387  0.43670900  0.47075428    -0.35400
C887        C  0.43090116  0.42910169  0.43843137     0.16900
C888        C  0.43422178  0.41865861  0.45410893     0.22700
C889        C  0.43323202  0.41483421  0.50366085    -0.33600
C890        C  0.42888487  0.42236760  0.53590365     0.16800
O891        O  0.42220134  0.43882826  0.55695200    -0.25600
C892        C  0.42295933  0.43183270  0.59625933     0.06600
C893        C  0.42698615  0.42140168  0.58542298    -0.30500
O894        O  0.43821603  0.41308316  0.41791138    -0.22300
C895        C  0.43731582  0.41991213  0.37841788    -0.02300
C896        C  0.43277553  0.42998799  0.38882633    -0.16700
H897        H  0.42417484  0.44497753  0.45824586     0.21300
H898        H  0.43573984  0.40660265  0.51619798     0.19600
H899        H  0.42838933  0.41425176  0.61037691     0.19600
H900        H  0.43122501  0.43699538  0.36365497     0.15500
C901        C  0.41294022  0.42045880  0.95662993     0.30900
C902        C  0.41128969  0.42135422  0.00746723    -0.35400
C903        C  0.41811054  0.41569224  0.03724881     0.16900
C904        C  0.42603020  0.40959279  0.01831588     0.22700
C905        C  0.42753288  0.40854303  0.96754626    -0.33600
C906        C  0.42071161  0.41418607  0.93781203     0.16800
O907        O  0.40826002  0.42585746  0.92211314    -0.25600
C908        C  0.41301937  0.42290763  0.88064733     0.06600
C909        C  0.42079851  0.41563175  0.88824603    -0.30500
O910        O  0.43233779  0.40591825  0.05272067    -0.22300
C911        C  0.42835688  0.40962978  0.09432730    -0.02300
C912        C  0.41943348  0.41569293  0.08696580    -0.16700
H913        H  0.40546975  0.42649568  0.02275163     0.21300
H914        H  0.43394786  0.40404331  0.95230930     0.19600
H915        H  0.42624991  0.41243784  0.86128871     0.19600
H916        H  0.41514202  0.42008972  0.11416062     0.15500
C917        C  0.42590179  0.34334077  0.30224863     0.30900
C918        C  0.42806896  0.33249760  0.32429030    -0.35400
C919        C  0.41542820  0.32020336  0.34333286     0.16900
C920        C  0.40169568  0.31879273  0.34084990     0.22700
C921        C  0.39951647  0.32946243  0.31846483    -0.33600
C922        C  0.41205002  0.34161781  0.29936452     0.16800
O923        O  0.43616431  0.35618556  0.28472417    -0.25600
C924        C  0.42866255  0.36261471  0.27034368     0.06600
C925        C  0.41364141  0.35396217  0.27822966    -0.30500
O926        O  0.39135484  0.30644706  0.36005415    -0.22300
C927        C  0.39841882  0.29968933  0.37500560    -0.02300
C928        C  0.41346547  0.30771646  0.36567525    -0.16700
H929        H  0.43883971  0.33363686  0.32690194     0.21300
H930        H  0.38876624  0.32840037  0.31637307     0.19600
H931        H  0.40519908  0.35675174  0.27189388     0.19600
H932        H  0.42161973  0.30458811  0.37277023     0.15500
C933        C  0.33721510  0.24376049  0.61387887     0.30900
C934        C  0.32399008  0.23780806  0.64007844    -0.35400
C935        C  0.32521150  0.23791436  0.69124691     0.16900
C936        C  0.33852807  0.24352422  0.71511405     0.22700
C937        C  0.35176917  0.24946414  0.68889657    -0.33600
C938        C  0.35054309  0.24934382  0.63766554     0.16800
O939        O  0.33856997  0.24431472  0.56576850    -0.25600
C940        C  0.35295430  0.25034912  0.55859100     0.06600
C941        C  0.36095924  0.25372672  0.60199224    -0.30500
O942        O  0.33704396  0.24217841  0.76313974    -0.22300
C943        C  0.32258970  0.23561586  0.77003732    -0.02300
C944        C  0.31468490  0.23267797  0.72662142    -0.16700
H945        H  0.31346735  0.23322061  0.62181390     0.21300
H946        H  0.36225991  0.25369886  0.70711196     0.19600
H947        H  0.37267985  0.25835819  0.60650335     0.19600
H948        H  0.30289264  0.22722298  0.72183803     0.15500
C949        C  0.34862712  0.24710215  0.19615498     0.30900
C950        C  0.35166103  0.24888023  0.14578837    -0.35400
C951        C  0.33941790  0.24257805  0.11460183     0.16900
C952        C  0.32517020  0.23509488  0.13185651     0.22700
C953        C  0.32212921  0.23362873  0.18226401    -0.33600
C954        C  0.33438135  0.23987439  0.21347337     0.16800
O955        O  0.35840617  0.25119530  0.23157859    -0.25600
C956        C  0.35035002  0.24661356  0.27214145     0.06600
C957        C  0.33531775  0.23959637  0.26324444    -0.30500
O958        O  0.31542463  0.22929395  0.09625180    -0.22300
C959        C  0.32352551  0.23317543  0.05571559    -0.02300
C960        C  0.33853016  0.24154159  0.06478941    -0.16700
H961        H  0.36279223  0.25436256  0.13188729     0.21300
H962        H  0.31100352  0.22761989  0.19612999     0.19600
H963        H  0.32642010  0.23457785  0.28942361     0.19600
H964        H  0.34745141  0.24583799  0.03860965     0.15500
C965        C  0.84941299  0.71548111  0.88464950     0.30900
C966        C  0.86488113  0.72412134  0.88441234    -0.35400
C967        C  0.87247989  0.71630797  0.88758608     0.16900
C968        C  0.86524378  0.70112625  0.89071821     0.22700
C969        C  0.84997636  0.69259645  0.89080435    -0.33600
C970        C  0.84249318  0.70032210  0.88764004     0.16800
O971        O  0.83990222  0.72021358  0.88316041    -0.25600
C972        C  0.82688240  0.70781802  0.88525803     0.06600
C973        C  0.82792037  0.69520811  0.88789608    -0.30500
O974        O  0.87419077  0.69592598  0.89317395    -0.22300
C975        C  0.88744896  0.70781800  0.89151041    -0.02300
C976        C  0.88717913  0.72091757  0.88815968    -0.16700
H977        H  0.87055961  0.73602447  0.88217061     0.21300
H978        H  0.84429654  0.68068854  0.89335236     0.19600
H979        H  0.81913085  0.68384449  0.89051630     0.19600
H980        H  0.89637970  0.73207163  0.88606809     0.15500
C981        C  0.73395453  0.74303312  0.99295956     0.30900
C982        C  0.73259953  0.72997832  0.97410997    -0.35400
C983        C  0.74546793  0.73099477  0.95569454     0.16900
C984        C  0.75885829  0.74393946  0.95571882     0.22700
C985        C  0.76017685  0.75712827  0.97405717    -0.33600
C986        C  0.74722213  0.75611613  0.99266373     0.16800
O987        O  0.72331070  0.74439491  0.01283807    -0.25600
C988        C  0.72973523  0.75853252  0.02573912     0.06600
C989        C  0.74462046  0.76644038  0.01382449    -0.30500
O990        O  0.76958892  0.74202966  0.93892098    -0.22300
C991        C  0.76283825  0.72770754  0.92771190    -0.02300
C992        C  0.74785897  0.72036889  0.93731677    -0.16700
H993        H  0.72224958  0.71966397  0.97451480     0.21300
H994        H  0.77059279  0.76736797  0.97464634     0.19600
H995        H  0.75232903  0.77805092  0.01968854     0.19600
H996        H  0.73996777  0.70872537  0.93319639     0.15500
C997        C  0.46234551  0.50811498  0.76352530     0.30900
C998        C  0.46929955  0.52313234  0.75096206    -0.35400
C999        C  0.48448696  0.53155671  0.76057284     0.16900
C1000       C  0.49219830  0.52558733  0.78155846     0.22700
C1001       C  0.48523395  0.51072518  0.79498038    -0.33600
C1002       C  0.47017238  0.50231338  0.78478959     0.16800
O1003       O  0.44862672  0.49786767  0.75326352    -0.25600
C1004       C  0.44776241  0.48538405  0.76794158     0.06600
C1005       C  0.46081912  0.48754443  0.78805853    -0.30500
O1006       O  0.50643777  0.53495803  0.78341068    -0.22300
C1007       C  0.50799528  0.54719276  0.76365295    -0.02300
C1008       C  0.49468896  0.54578993  0.74899162    -0.16700
H1009       H  0.46343995  0.52774855  0.73277818     0.21300
H1010       H  0.49130638  0.50587180  0.80999569     0.19600
H1011       H  0.46327791  0.47929300  0.80081542     0.19600
H1012       H  0.49290544  0.55379267  0.73025700     0.15500
C1013       C  0.58848112  0.64988704  0.66950152     0.30900
C1014       C  0.60137698  0.66086413  0.64756210    -0.35400
C1015       C  0.60130581  0.67359961  0.63344709     0.16900
C1016       C  0.58941056  0.67552556  0.64059443     0.22700
C1017       C  0.57643762  0.66447496  0.66255580    -0.33600
C1018       C  0.57647363  0.65163491  0.67658620     0.16800
O1019       O  0.58615559  0.63701085  0.68443011    -0.25600
C1020       C  0.57246804  0.63030137  0.70141179     0.06600
C1021       C  0.56585406  0.63886941  0.69755810    -0.30500
O1022       O  0.59202944  0.68859636  0.62587857    -0.22300
C1023       C  0.60573626  0.69500471  0.60886837    -0.02300
C1024       C  0.61200469  0.68616036  0.61264855    -0.16700
H1025       H  0.61082590  0.65955285  0.64185548     0.21300
H1026       H  0.56701055  0.66580798  0.66840055     0.19600
H1027       H  0.55477956  0.63597889  0.70757176     0.19600
H1028       H  0.62304726  0.68882415  0.60303929     0.15500
C1029       C  0.67788827  0.76279793  0.85841068     0.30900
C1030       C  0.68073957  0.76424392  0.80800995    -0.35400
C1031       C  0.66839852  0.75793693  0.77740057     0.16900
C1032       C  0.65419530  0.75078405  0.79509986     0.22700
C1033       C  0.65132950  0.74920494  0.84565569    -0.33600
C1034       C  0.66371138  0.75543484  0.87635574     0.16800
O1035       O  0.68782876  0.76805339  0.89342472    -0.25600
C1036       C  0.67996185  0.76391335  0.93438735     0.06600
C1037       C  0.66488052  0.75598496  0.92618380    -0.30500
O1038       O  0.64433619  0.74605983  0.75967107    -0.22300
C1039       C  0.65237247  0.75017363  0.71893673    -0.02300
C1040       C  0.66739481  0.75754883  0.72770870    -0.16700
H1041       H  0.69182183  0.76996665  0.79366770     0.21300
H1042       H  0.64024746  0.74359375  0.86000942     0.19600
H1043       H  0.65611739  0.75148067  0.95295334     0.19600
H1044       H  0.67625912  0.76213677  0.70131288     0.15500
C1045       C  0.67943496  0.75782594  0.29441462     0.30900
C1046       C  0.68193180  0.75884692  0.34523189    -0.35400
C1047       C  0.66937034  0.75282091  0.37505434     0.16900
C1048       C  0.65530565  0.74629291  0.35621676     0.22700
C1049       C  0.65280071  0.74520294  0.30540179    -0.33600
C1050       C  0.66536181  0.75115387  0.27557893     0.16800
O1051       O  0.68959308  0.76314907  0.25988579    -0.25600
C1052       C  0.68193339  0.75972293  0.21831104     0.06600
C1053       C  0.66680296  0.75223693  0.22587477    -0.30500
O1054       O  0.64519644  0.74189087  0.39079613    -0.22300
C1055       C  0.65287187  0.74558724  0.43237647    -0.02300
C1056       C  0.66796721  0.75239848  0.42480891    -0.16700
H1057       H  0.69291067  0.76415568  0.36046979     0.21300
H1058       H  0.64183515  0.74023554  0.29019396     0.19600
H1059       H  0.65815617  0.74853696  0.19873868     0.19600
H1060       H  0.67664098  0.75676120  0.45199199     0.15500
C1061       C  0.50763920  0.46759248  0.20135504     0.30900
C1062       C  0.51450293  0.48274191  0.19313569    -0.35400
C1063       C  0.52969796  0.49071220  0.20018619     0.16900
C1064       C  0.53778180  0.48432288  0.21412489     0.22700
C1065       C  0.53088742  0.46897930  0.22146046    -0.33600
C1066       C  0.51552586  0.46092470  0.21462553     0.16800
O1067       O  0.49338493  0.45843133  0.20087139    -0.25600
C1068       C  0.49193213  0.44559917  0.21364666     0.06600
C1069       C  0.50534566  0.44638657  0.22232668    -0.30500
O1070       O  0.55178479  0.49425896  0.22214193    -0.22300
C1071       C  0.55249414  0.50706380  0.21307544    -0.02300
C1072       C  0.53909691  0.50543513  0.19909496    -0.16700
H1073       H  0.50831216  0.48805675  0.18386694     0.21300
H1074       H  0.53695794  0.46378704  0.23349345     0.19600
H1075       H  0.50724423  0.43774330  0.23487782     0.19600
H1076       H  0.53652550  0.51397323  0.19125529     0.15500
C1077       C  0.57633605  0.56189893  0.45505347     0.30900
C1078       C  0.57804032  0.56067000  0.50544456    -0.35400
C1079       C  0.57102784  0.56585836  0.53666196     0.16900
C1080       C  0.56281611  0.57177131  0.51947718     0.22700
C1081       C  0.56122881  0.57313981  0.46899432    -0.33600
C1082       C  0.56833363  0.56802927  0.43772583     0.16800
O1083       O  0.58182679  0.55758304  0.41952176    -0.25600
C1084       C  0.57740785  0.56108597  0.37882435     0.06600
C1085       C  0.56900794  0.56767232  0.38779904    -0.30500
O1086       O  0.55712343  0.57581198  0.55526313    -0.22300
C1087       C  0.56181388  0.57250851  0.59584410    -0.02300
C1088       C  0.57055078  0.56633382  0.58651928    -0.16700
H1089       H  0.58437443  0.55596562  0.51933094     0.21300
H1090       H  0.55489396  0.57784265  0.45510175     0.19600
H1091       H  0.56401026  0.57145886  0.36144802     0.19600
H1092       H  0.57578801  0.56275312  0.61265540     0.15500
C1093       C  0.57897319  0.57707431  0.03935850     0.30900
C1094       C  0.57170232  0.58304666  0.01344049    -0.35400
C1095       C  0.57252866  0.58270566  0.96205868     0.16900
C1096       C  0.58006038  0.57696610  0.93779349     0.22700
C1097       C  0.58740451  0.57108696  0.96371207    -0.33600
C1098       C  0.58649046  0.57132917  0.01504464     0.16800
O1099       O  0.57895976  0.57551689  0.08738439    -0.25600
C1100       C  0.58655913  0.56866611  0.09392490     0.06600
C1101       C  0.59150669  0.56579389  0.05016854    -0.30500
O1102       O  0.57874319  0.57703315  0.88966483    -0.22300
C1103       C  0.57026438  0.58291118  0.88290854    -0.02300
C1104       C  0.56609678  0.58667654  0.92668849    -0.16700
H1105       H  0.56549063  0.58728144  0.03198698     0.21300
H1106       H  0.59307587  0.56626531  0.94511935     0.19600
H1107       H  0.59751903  0.56004291  0.04494677     0.19600
H1108       H  0.55892550  0.59117065  0.93171292     0.15500
C1109       C  0.82977400  0.63089686  0.42659136     0.30900
C1110       C  0.82319839  0.63944820  0.43407191    -0.35400
C1111       C  0.80807015  0.63237210  0.42569377     0.16900
C1112       C  0.79979175  0.61777481  0.41150386     0.22700
C1113       C  0.80639344  0.60909060  0.40466299    -0.33600
C1114       C  0.82168751  0.61626308  0.41256316     0.16800
O1115       O  0.84395593  0.63580778  0.42831140    -0.25600
C1116       C  0.84515366  0.62424317  0.41541558     0.06600
C1117       C  0.83164249  0.61167151  0.40545224    -0.30500
O1118       O  0.78589692  0.61378551  0.40294346    -0.22300
C1119       C  0.78544616  0.62606435  0.41163501    -0.02300
C1120       C  0.79891096  0.63789851  0.42598744    -0.16700
H1121       H  0.82956453  0.65102441  0.44379614     0.21300
H1122       H  0.80016491  0.59774310  0.39228480     0.19600
H1123       H  0.82955834  0.60102202  0.39246361     0.19600
H1124       H  0.80164858  0.64911371  0.43401776     0.15500
C1125       C  0.65596225  0.57550112  0.30171974     0.30900
C1126       C  0.66749684  0.57405918  0.32168913    -0.35400
C1127       C  0.68036187  0.58729683  0.33452681     0.16900
C1128       C  0.68167383  0.60093613  0.32831090     0.22700
C1129       C  0.67023339  0.60236769  0.30845886    -0.33600
C1130       C  0.65750207  0.58922945  0.29546581     0.16800
O1131       O  0.64283583  0.56470346  0.28773377    -0.25600
C1132       C  0.63601698  0.57172345  0.27217880     0.06600
C1133       C  0.64466593  0.58695827  0.27620316    -0.30500
O1134       O  0.69461198  0.61188038  0.34183737    -0.22300
C1135       C  0.70182718  0.60528955  0.35697790    -0.02300
C1136       C  0.69352800  0.58996570  0.35331114    -0.16700
H1137       H  0.66652694  0.56339350  0.32677576     0.21300
H1138       H  0.67121749  0.61304350  0.30330168     0.19600
H1139       H  0.64175117  0.59518969  0.26731446     0.19600
H1140       H  0.69681811  0.58202185  0.36219541     0.15500
C1141       C  0.75803118  0.66732065  0.69119864     0.30900
C1142       C  0.75118905  0.65400347  0.66464953    -0.35400
C1143       C  0.75172546  0.65522236  0.61343530     0.16900
C1144       C  0.75846193  0.66862151  0.58984426     0.22700
C1145       C  0.76522307  0.68195556  0.61642255    -0.33600
C1146       C  0.76476866  0.68073550  0.66769400     0.16800
O1147       O  0.75951143  0.66872182  0.73926190    -0.25600
C1148       C  0.76732776  0.68322209  0.74673709     0.06600
C1149       C  0.77088580  0.69125704  0.70353721    -0.30500
O1150       O  0.75827492  0.66715763  0.54168877    -0.22300
C1151       C  0.75129425  0.65263024  0.53437845    -0.02300
C1152       C  0.74696197  0.64466522  0.57770922    -0.16700
H1153       H  0.74614039  0.64342749  0.68265756     0.21300
H1154       H  0.77079351  0.69252906  0.59839001     0.19600
H1155       H  0.77739709  0.70308616  0.69916345     0.19600
H1156       H  0.74153710  0.63283864  0.58222094     0.15500
C1157       C  0.76525550  0.66614985  0.09018991     0.30900
C1158       C  0.75990289  0.65309788  0.11698286    -0.35400
C1159       C  0.75988510  0.65461398  0.16811099     0.16900
C1160       C  0.76469121  0.66801450  0.19133483     0.22700
C1161       C  0.77011087  0.68106681  0.16457268    -0.33600
C1162       C  0.77023775  0.67956743  0.11350040     0.16800
O1163       O  0.76636298  0.66734372  0.04204840    -0.25600
C1164       C  0.77222892  0.68172693  0.03459318     0.06600
C1165       C  0.77489598  0.68986263  0.07767946    -0.30500
O1166       O  0.76363466  0.66686023  0.23945882    -0.22300
C1167       C  0.75816815  0.65254713  0.24712018    -0.02300
C1168       C  0.75562260  0.64439182  0.20411222    -0.16700
H1169       H  0.75608157  0.64252551  0.09925383     0.21300
H1170       H  0.77401522  0.69165129  0.18231828     0.19600
H1171       H  0.77958889  0.70165040  0.08189544     0.19600
H1172       H  0.75123048  0.63264411  0.20005349     0.15500
C1173       C  0.62061174  0.81864538  0.56816782     0.30900
C1174       C  0.61152799  0.80317703  0.56569122    -0.35400
C1175       C  0.61880872  0.79501278  0.56536838     0.16900
C1176       C  0.63392816  0.80172480  0.56738283     0.22700
C1177       C  0.64292074  0.81702969  0.56979049    -0.33600
C1178       C  0.63570125  0.82509019  0.57014240     0.16800
O1179       O  0.61635311  0.82855432  0.56938987    -0.25600
C1180       C  0.62894891  0.84139525  0.57222406     0.06600
C1181       C  0.64126583  0.83983474  0.57282653    -0.30500
O1182       O  0.63856707  0.79225825  0.56786570    -0.22300
C1183       C  0.62636048  0.77918430  0.56607741    -0.02300
C1184       C  0.61362968  0.78012454  0.56431348    -0.16700
H1185       H  0.59967151  0.79789969  0.56445987     0.21300
H1186       H  0.65477481  0.82229818  0.57170033     0.19600
H1187       H  0.65271523  0.84838154  0.57512776     0.19600
H1188       H  0.60232092  0.77122190  0.56344167     0.15500
C1189       C  0.59050777  0.93361153  0.66278945     0.30900
C1190       C  0.60355472  0.93541727  0.64273065    -0.35400
C1191       C  0.60334850  0.92247608  0.62859866     0.16900
C1192       C  0.59118018  0.90861974  0.63392495     0.22700
C1193       C  0.57803129  0.90681243  0.65387406    -0.33600
C1194       C  0.57821686  0.91982950  0.66799985     0.16800
O1195       O  0.58836411  0.94429324  0.67809408    -0.25600
C1196       C  0.57450559  0.93736931  0.69342051     0.06600
C1197       C  0.56759383  0.92210045  0.68806202    -0.30500
O1198       O  0.59380990  0.89802229  0.62052858    -0.22300
C1199       C  0.60782276  0.90527085  0.60633529    -0.02300
C1200       C  0.61422976  0.92048857  0.61038255    -0.16700
H1201       H  0.61325739  0.94618697  0.63880059     0.21300
H1202       H  0.56840942  0.89603061  0.65859055     0.19600
H1203       H  0.55637269  0.91393845  0.69691588     0.19600
H1204       H  0.62550952  0.92885507  0.60316544     0.15500
C1205       C  0.56211989  0.98647800  0.51650573     0.30900
C1206       C  0.55966261  0.98367663  0.46594071    -0.35400
C1207       C  0.56714576  0.99594800  0.43529514     0.16900
C1208       C  0.57628560  0.01001173  0.45324797     0.22700
C1209       C  0.57878434  0.01279519  0.50373434    -0.33600
C1210       C  0.57139894  0.00052759  0.53430154     0.16800
O1211       O  0.55653654  0.97661978  0.55172640    -0.25600
C1212       C  0.56235284  0.98447145  0.59253913     0.06600
C1213       C  0.57168223  0.99940182  0.58392650    -0.30500
O1214       O  0.58216161  0.01985981  0.41815050    -0.22300
C1215       C  0.57682740  0.01201297  0.37707032    -0.02300
C1216       C  0.56744609  0.99705537  0.38544750    -0.16700
H1217       H  0.55253968  0.97269336  0.45150525     0.21300
H1218       H  0.58606593  0.02374446  0.51814443     0.19600
H1219       H  0.57791920  0.00809606  0.61032886     0.19600
H1220       H  0.56169380  0.98831786  0.35873853     0.15500
C1221       C  0.58902997  0.01185909  0.01435642     0.30900
C1222       C  0.58989805  0.01445186  0.96360874    -0.35400
C1223       C  0.58396429  0.00189021  0.93304695     0.16900
C1224       C  0.57764499  0.98776919  0.95122778     0.22700
C1225       C  0.57698334  0.98520607  0.00182841    -0.33600
C1226       C  0.58286775  0.99772954  0.03231897     0.16800
O1227       O  0.59284683  0.02184125  0.04965614    -0.25600
C1228       C  0.58912967  0.01398991  0.09072888     0.06600
C1229       C  0.58294686  0.99894286  0.08209756    -0.30500
O1230       O  0.57181768  0.97758076  0.91651512    -0.22300
C1231       C  0.57447746  0.98522093  0.87535413    -0.02300
C1232       C  0.58207678  0.00041720  0.88337652    -0.16700
H1233       H  0.59440453  0.02544571  0.94904203     0.21300
H1234       H  0.57175994  0.97416647  0.01648826     0.19600
H1235       H  0.57850609  0.99012814  0.10858053     0.19600
H1236       H  0.58512963  0.00906377  0.85676323     0.15500
C1237       C  0.80554003  0.17045618  0.42917469     0.30900
C1238       C  0.82077753  0.17726151  0.43358943    -0.35400
C1239       C  0.82852638  0.19257247  0.42965188     0.16900
C1240       C  0.82186137  0.20081035  0.42190271     0.22700
C1241       C  0.80645137  0.19393903  0.41773034    -0.33600
C1242       C  0.79860001  0.17845570  0.42172369     0.16800
O1243       O  0.79640847  0.15618373  0.42956534    -0.25600
C1244       C  0.78332599  0.15481337  0.42255906     0.06600
C1245       C  0.78391672  0.16830352  0.41757307    -0.30500
O1246       O  0.83155607  0.21504859  0.41760876    -0.22300
C1247       C  0.84446556  0.21572377  0.42277073    -0.02300
C1248       C  0.84317270  0.20208379  0.43039192    -0.16700
H1249       H  0.82625118  0.17099286  0.43875531     0.21300
H1250       H  0.80101347  0.20016341  0.41097523     0.19600
H1251       H  0.77497328  0.17028368  0.41027454     0.19600
H1252       H  0.85184323  0.19950977  0.43469206     0.15500
C1253       C  0.68132150  0.07537712  0.32911606     0.30900
C1254       C  0.66997164  0.06236230  0.30848482    -0.35400
C1255       C  0.65757516  0.06285335  0.29319890     0.16900
C1256       C  0.65633202  0.07527392  0.29781841     0.22700
C1257       C  0.66775730  0.08836554  0.31850845    -0.33600
C1258       C  0.68022764  0.08788117  0.33392677     0.16800
O1259       O  0.69392023  0.07731194  0.34527862    -0.25600
C1260       C  0.70106824  0.09122599  0.36089455     0.06600
C1261       C  0.69310856  0.09839882  0.35481685    -0.30500
O1262       O  0.64342163  0.07296429  0.28269892    -0.22300
C1263       C  0.63640817  0.05889626  0.26827030    -0.02300
C1264       C  0.64472008  0.05211695  0.27384922    -0.16700
H1265       H  0.67072540  0.05249491  0.30485766     0.21300
H1266       H  0.66693197  0.09817631  0.32268134     0.19600
H1267       H  0.69644082  0.10973082  0.36355834     0.19600
H1268       H  0.64151521  0.04073863  0.26647397     0.15500
C1269       C  0.84096079  0.13391363  0.86745328     0.30900
C1270       C  0.84739149  0.14901376  0.85913251    -0.35400
C1271       C  0.86251328  0.15743031  0.86699340     0.16900
C1272       C  0.87094391  0.15150093  0.88170658     0.22700
C1273       C  0.86446071  0.13620946  0.88977081    -0.33600
C1274       C  0.84913763  0.12769615  0.88219735     0.16800
O1275       O  0.82682395  0.12437729  0.86536742    -0.25600
C1276       C  0.82567887  0.11173360  0.87879812     0.06600
C1277       C  0.83922805  0.11303188  0.88959965    -0.30500
O1278       O  0.88484754  0.16179228  0.88929310    -0.22300
C1279       C  0.88511039  0.17434448  0.87936491    -0.02300
C1280       C  0.87153626  0.17221672  0.86527343    -0.16700
H1281       H  0.84092916  0.15394583  0.84878841     0.21300
H1282       H  0.87080391  0.13138145  0.90247718     0.19600
H1283       H  0.84136554  0.10462626  0.90299634     0.19600
H1284       H  0.86863280  0.18046577  0.85659379     0.15500
C1285       C  0.76048329  0.07710487  0.68288520     0.30900
C1286       C  0.76245403  0.07675246  0.63205890    -0.35400
C1287       C  0.75566414  0.08252848  0.60270232     0.16900
C1288       C  0.74748782  0.08830276  0.62188749     0.22700
C1289       C  0.74531679  0.08844467  0.67278581    -0.33600
C1290       C  0.75212603  0.08265851  0.70221143     0.16800
O1291       O  0.76675079  0.07328192  0.71707106    -0.25600
C1292       C  0.76232751  0.07635404  0.75901653     0.06600
C1293       C  0.75312902  0.08213458  0.75198652    -0.30500
O1294       O  0.74300004  0.09403779  0.58777673    -0.22300
C1295       C  0.74827949  0.09178314  0.54615681    -0.02300
C1296       C  0.75618442  0.08461424  0.55334218    -0.16700
H1297       H  0.76922190  0.07269887  0.61654589     0.21300
H1298       H  0.73916489  0.09318053  0.68845680     0.19600
H1299       H  0.74846642  0.08605027  0.77951661     0.19600
H1300       H  0.76201077  0.08191286  0.52630591     0.15500
C1301       C  0.76582418  0.09639164  0.10093960     0.30900
C1302       C  0.76044817  0.10399451  0.12868397    -0.35400
C1303       C  0.76054927  0.10251924  0.17981875     0.16900
C1304       C  0.76547931  0.09406520  0.20212308     0.22700
C1305       C  0.77093656  0.08656780  0.17445118    -0.33600
C1306       C  0.77094815  0.08813737  0.12347055     0.16800
O1307       O  0.76663924  0.09605623  0.05260107    -0.25600
C1308       C  0.77248266  0.08757131  0.04431890     0.06600
C1309       C  0.77540371  0.08238897  0.08705020    -0.30500
O1310       O  0.76427815  0.09394581  0.25030777    -0.22300
C1311       C  0.75858591  0.10251595  0.25909242    -0.02300
C1312       C  0.75607492  0.10818845  0.21663481    -0.16700
H1313       H  0.75642571  0.11054044  0.11165473     0.21300
H1314       H  0.77485403  0.07993018  0.19146225     0.19600
H1315       H  0.77999352  0.07526314  0.09064911     0.19600
H1316       H  0.75141101  0.11525901  0.21340865     0.15500
C1317       C  0.71564537  0.84225478  0.07995881     0.30900
C1318       C  0.72451607  0.85773142  0.08188966    -0.35400
C1319       C  0.71704255  0.86568233  0.08003736     0.16900
C1320       C  0.70193915  0.85880842  0.07617636     0.22700
C1321       C  0.69314832  0.84346946  0.07395982    -0.33600
C1322       C  0.70056342  0.83560586  0.07615105     0.16800
O1323       O  0.72009745  0.83251022  0.08184661    -0.25600
C1324       C  0.70762309  0.81956163  0.07924669     0.06600
C1325       C  0.69520893  0.82089138  0.07563899    -0.30500
O1326       O  0.69712238  0.86815575  0.07588214    -0.22300
C1327       C  0.70922628  0.88128289  0.07978216    -0.02300
C1328       C  0.72201421  0.88049046  0.08237959    -0.16700
H1329       H  0.73635170  0.86317073  0.08513608     0.21300
H1330       H  0.68129464  0.83802242  0.07125659     0.19600
H1331       H  0.68382297  0.81220500  0.07298491     0.19600
H1332       H  0.73323934  0.88945626  0.08588633     0.15500
C1333       C  0.66997178  0.90477598  0.78243477     0.30900
C1334       C  0.68309694  0.91108267  0.80932352    -0.35400
C1335       C  0.68159475  0.91049400  0.86042185     0.16900
C1336       C  0.66812947  0.90423426  0.88360741     0.22700
C1337       C  0.65499575  0.89789289  0.85669667    -0.33600
C1338       C  0.65649215  0.89839475  0.80555886     0.16800
O1339       O  0.66878945  0.90392346  0.73428101    -0.25600
C1340       C  0.65436731  0.89685389  0.72651769     0.06600
C1341       C  0.64616876  0.89312763  0.76946966    -0.30500
O1342       O  0.66932941  0.90481589  0.93179349    -0.22300
C1343       C  0.68374366  0.91146686  0.93940111    -0.02300
C1344       C  0.69190745  0.91523839  0.89639133    -0.16700
H1345       H  0.69372212  0.91599240  0.79166063     0.21300
H1346       H  0.64436528  0.89282385  0.87436371     0.19600
H1347       H  0.63433848  0.88732842  0.77343342     0.19600
H1348       H  0.70371786  0.92061837  0.89231786     0.15500
C1349       C  0.68224512  0.91544967  0.30247198     0.30900
C1350       C  0.68482738  0.91760891  0.35320232    -0.35400
C1351       C  0.67230934  0.91095451  0.38322830     0.16900
C1352       C  0.65825653  0.90270419  0.36455874     0.22700
C1353       C  0.65567770  0.90065551  0.31396440    -0.33600
C1354       C  0.66815353  0.90735485  0.28401925     0.16800
O1355       O  0.69230691  0.92022225  0.26765307    -0.25600
C1356       C  0.68451173  0.91521526  0.22645643     0.06600
C1357       C  0.66944092  0.90716588  0.23445014    -0.30500
O1358       O  0.64820205  0.89692354  0.39910126    -0.22300
C1359       C  0.65586214  0.90157158  0.44054777    -0.02300
C1360       C  0.67092568  0.91039115  0.43301246    -0.16700
H1361       H  0.69581511  0.92382742  0.36820780     0.21300
H1362       H  0.64471672  0.89409751  0.29901906     0.19600
H1363       H  0.66073695  0.90165556  0.20767419     0.19600
H1364       H  0.67958558  0.91525253  0.46019620     0.15500
C1365       C  0.75878747  0.00937201  0.97010683     0.30900
C1366       C  0.76080826  0.99835190  0.99155086    -0.35400
C1367       C  0.74814741  0.98619152  0.01119238     0.16900
C1368       C  0.73452166  0.98504902  0.00972659     0.22700
C1369       C  0.73248533  0.99589901  0.98793487    -0.33600
C1370       C  0.74504306  0.00793664  0.96831858     0.16800
O1371       O  0.76910752  0.02209399  0.95191463    -0.25600
C1372       C  0.76175443  0.02874072  0.93812880     0.06600
C1373       C  0.74676696  0.02035513  0.94722695    -0.30500
O1374       O  0.72413415  0.97279242  0.02938179    -0.22300
C1375       C  0.73105905  0.96583009  0.04375058    -0.02300
C1376       C  0.74606411  0.97363426  0.03343191    -0.16700
H1377       H  0.77149391  0.99926307  0.99327643     0.21300
H1378       H  0.72181999  0.99505130  0.98663121     0.19600
H1379       H  0.73843829  0.02333305  0.94142475     0.19600
H1380       H  0.75411019  0.97031743  0.03983879     0.15500
C1381       C  0.28756402  0.15311665  0.90162518     0.30900
C1382       C  0.27861416  0.13770996  0.90639868    -0.35400
C1383       C  0.28577050  0.12949426  0.90123583     0.16900
C1384       C  0.30065764  0.13609421  0.89221300     0.22700
C1385       C  0.30950201  0.15133343  0.88725102    -0.33600
C1386       C  0.30240281  0.15944480  0.89228729     0.16800
O1387       O  0.28347661  0.16310480  0.90633856    -0.25600
C1388       C  0.29593236  0.17587084  0.89985120     0.06600
C1389       C  0.30797466  0.17418628  0.89093310    -0.30500
O1390       O  0.30531352  0.12664056  0.89038874    -0.22300
C1391       C  0.29332718  0.11368774  0.89801216    -0.02300
C1392       C  0.28074109  0.11469309  0.90490274    -0.16700
H1393       H  0.26698699  0.13253411  0.91419995     0.21300
H1394       H  0.32119975  0.15654049  0.88063099     0.19600
H1395       H  0.31930454  0.18267213  0.88520846     0.19600
H1396       H  0.26968700  0.10592313  0.91274385     0.15500
C1397       C  0.16227275  0.85818824  0.08429043     0.30900
C1398       C  0.15559753  0.84284063  0.08516442    -0.35400
C1399       C  0.14030028  0.83503064  0.08903643     0.16900
C1400       C  0.13194701  0.84174048  0.09191779     0.22700
C1401       C  0.13870542  0.85726881  0.09131990    -0.33600
C1402       C  0.15417764  0.86518041  0.08730616     0.16800
O1403       O  0.17644773  0.86741627  0.08017728    -0.25600
C1404       C  0.17769606  0.88063676  0.08053527     0.06600
C1405       C  0.16418568  0.88000884  0.08489458    -0.30500
O1406       O  0.11765643  0.83199665  0.09353969    -0.22300
C1407       C  0.11703945  0.81898283  0.09165176    -0.02300
C1408       C  0.13081171  0.82030090  0.08902558    -0.16700
H1409       H  0.16192275  0.83733853  0.08240873     0.21300
H1410       H  0.13236698  0.86276645  0.09319015     0.19600
H1411       H  0.16207366  0.88907536  0.08600766     0.19600
H1412       H  0.13343922  0.81159885  0.08622251     0.15500
C1413       C  0.26830003  0.01001316  0.97548718     0.30900
C1414       C  0.27030510  0.99884898  0.99457495    -0.35400
C1415       C  0.25765913  0.98630783  0.01108408     0.16900
C1416       C  0.24383215  0.98465357  0.00865503     0.22700
C1417       C  0.24180870  0.99595147  0.98955428    -0.33600
C1418       C  0.25459395  0.00867202  0.97323022     0.16800
O1419       O  0.27880342  0.02273119  0.95914811    -0.25600
C1420       C  0.27191146  0.02982196  0.94604586     0.06600
C1421       C  0.25677242  0.02164336  0.95394301    -0.30500
O1422       O  0.23351291  0.97158852  0.02460910    -0.22300
C1423       C  0.24096769  0.96497684  0.03767921    -0.02300
C1424       C  0.25599813  0.97368834  0.03016740    -0.16700
H1425       H  0.28105704  0.99989083  0.99648284     0.21300
H1426       H  0.23105606  0.99488681  0.98743822     0.19600
H1427       H  0.24867755  0.02489854  0.94753172     0.19600
H1428       H  0.26444365  0.97086997  0.03606246     0.15500
C1429       C  0.37048697  0.16998152  0.41564164     0.30900
C1430       C  0.36210047  0.17673819  0.40964772    -0.35400
C1431       C  0.36966020  0.19206971  0.41383905     0.16900
C1432       C  0.38452429  0.20039899  0.42339086     0.22700
C1433       C  0.39301649  0.19356230  0.42943703    -0.33600
C1434       C  0.38538175  0.17803762  0.42511016     0.16800
O1435       O  0.36544137  0.15574843  0.41259361    -0.25600
C1436       C  0.37715293  0.15441444  0.42008923     0.06600
C1437       C  0.38996471  0.16793008  0.42813970    -0.30500
O1438       O  0.38914638  0.21471505  0.42559147    -0.22300
C1439       C  0.37698820  0.21533234  0.41721389    -0.02300
C1440       C  0.36463296  0.20157384  0.40974080    -0.16700
H1441       H  0.35042970  0.17043815  0.40202680     0.21300
H1442       H  0.40469680  0.19986546  0.43679389     0.19600
H1443       H  0.40096208  0.16998787  0.43479472     0.19600
H1444       H  0.35347721  0.19894825  0.40233451     0.15500
C1445       C  0.32161400  0.07956271  0.68754472     0.30900
C1446       C  0.31921861  0.07930625  0.63678843    -0.35400
C1447       C  0.33167720  0.08429545  0.60680976     0.16900
C1448       C  0.34557323  0.08928639  0.62546253     0.22700
C1449       C  0.34794778  0.08940176  0.67620233    -0.33600
C1450       C  0.33547366  0.08435752  0.70618800     0.16800
O1451       O  0.31164420  0.07602009  0.72228434    -0.25600
C1452       C  0.31917258  0.07849210  0.76384791     0.06600
C1453       C  0.33405486  0.08365772  0.75601728    -0.30500
O1454       O  0.35576580  0.09427181  0.59100693    -0.22300
C1455       C  0.34829776  0.09234435  0.54963834    -0.02300
C1456       C  0.33325188  0.08610393  0.55726259    -0.16700
H1457       H  0.30843973  0.07576554  0.62177691     0.21300
H1458       H  0.35881369  0.09346244  0.69131796     0.19600
H1459       H  0.34264152  0.08688140  0.78312236     0.19600
H1460       H  0.32480853  0.08382869  0.53043089     0.15500
C1461       C  0.33406053  0.09327631  0.20863060     0.30900
C1462       C  0.32087327  0.08676968  0.18195070    -0.35400
C1463       C  0.32227658  0.08768467  0.13077638     0.16900
C1464       C  0.33571265  0.09444325  0.10734586     0.22700
C1465       C  0.34890163  0.10106284  0.13404585    -0.33600
C1466       C  0.34750000  0.10023251  0.18523632     0.16800
O1467       O  0.33533692  0.09352744  0.25677405    -0.25600
C1468       C  0.34978306  0.10081438  0.26427173     0.06600
C1469       C  0.35789147  0.10531114  0.22113214    -0.30500
O1470       O  0.33442908  0.09380336  0.05915081    -0.22300
C1471       C  0.31998156  0.08663360  0.05169498    -0.02300
C1472       C  0.31188477  0.08258284  0.09490577    -0.16700
H1473       H  0.31026929  0.08132501  0.19981490     0.21300
H1474       H  0.35950522  0.10643220  0.11617731     0.19600
H1475       H  0.36971486  0.11127976  0.21690379     0.19600
H1476       H  0.30006214  0.07663691  0.09916995     0.15500
C1477       C  0.51647248  0.04970128  0.20436206     0.30900
C1478       C  0.53155273  0.05791339  0.21617163    -0.35400
C1479       C  0.53970081  0.05081938  0.20777795     0.16900
C1480       C  0.53338681  0.03671302  0.18861310     0.22700
C1481       C  0.51850829  0.02868280  0.17598682    -0.33600
C1482       C  0.51040737  0.03565681  0.18487453     0.16800
O1483       O  0.50639321  0.05337067  0.21410987    -0.25600
C1484       C  0.49380458  0.04145340  0.20075081     0.06600
C1485       C  0.49572147  0.03019839  0.18206986    -0.30500
O1486       O  0.54245638  0.03158022  0.18783837    -0.22300
C1487       C  0.55485839  0.04247195  0.20652534    -0.02300
C1488       C  0.55389332  0.05483239  0.21937169    -0.16700
H1489       H  0.53641011  0.06873292  0.23305231     0.21300
H1490       H  0.51341559  0.01742889  0.16259978     0.19600
H1491       H  0.48735823  0.01920294  0.17087000     0.19600
H1492       H  0.56212092  0.06488698  0.23710296     0.15500
C1493       C  0.41283770  0.08644535  0.34324449     0.30900
C1494       C  0.42610657  0.08833008  0.32406481    -0.35400
C1495       C  0.42572462  0.07551384  0.30619295     0.16900
C1496       C  0.41314069  0.06182246  0.30721052     0.22700
C1497       C  0.39996903  0.05993170  0.32657526    -0.33600
C1498       C  0.40036489  0.07267601  0.34442026     0.16800
O1499       O  0.41042454  0.09691978  0.36000454    -0.25600
C1500       C  0.39623217  0.08967987  0.37221768     0.06600
C1501       C  0.38950694  0.07458700  0.36346180    -0.30500
O1502       O  0.41517280  0.05131471  0.28905360    -0.22300
C1503       C  0.42925834  0.05826956  0.27603313    -0.02300
C1504       C  0.43640561  0.07337158  0.28586629    -0.16700
H1505       H  0.43600036  0.09905475  0.32273510     0.21300
H1506       H  0.39002626  0.04922398  0.32741152     0.19600
H1507       H  0.37806959  0.06627938  0.36857043     0.19600
H1508       H  0.44784138  0.08150067  0.27983778     0.15500
C1509       C  0.49417344  0.95996088  0.77059266     0.30900
C1510       C  0.48724207  0.96816677  0.77762880    -0.35400
C1511       C  0.47217846  0.96080848  0.76831941     0.16900
C1512       C  0.46421879  0.94624610  0.75351329     0.22700
C1513       C  0.47119892  0.93787911  0.74698187    -0.33600
C1514       C  0.48648265  0.94535695  0.75596767     0.16800
O1515       O  0.50840387  0.96526450  0.77309640    -0.25600
C1516       C  0.51008988  0.95400677  0.76015767     0.06600
C1517       C  0.49681528  0.94121386  0.74936154    -0.30500
O1518       O  0.45028260  0.94203993  0.74418612    -0.22300
C1519       C  0.44956588  0.95418315  0.75310339    -0.02300
C1520       C  0.46284742  0.96607987  0.76824396    -0.16700
H1521       H  0.49331956  0.97972735  0.78773951     0.21300
H1522       H  0.46527558  0.92656812  0.73409885     0.19600
H1523       H  0.49513895  0.93075884  0.73585088     0.19600
H1524       H  0.46537463  0.97721649  0.77654411     0.15500
C1525       C  0.43489784  0.99899627  0.53361547     0.30900
C1526       C  0.44171906  0.01223913  0.50720221    -0.35400
C1527       C  0.44144866  0.01080390  0.45586892     0.16900
C1528       C  0.43484275  0.99729013  0.43221766     0.22700
C1529       C  0.42818072  0.98409673  0.45858505    -0.33600
C1530       C  0.42852103  0.98552619  0.50975787     0.16800
O1531       O  0.43353822  0.99765776  0.58177354    -0.25600
C1532       C  0.42627242  0.98313521  0.58864632     0.06600
C1533       C  0.42292128  0.97507657  0.54514512    -0.30500
O1534       O  0.43536557  0.99846132  0.38406415    -0.22300
C1535       C  0.44250914  0.01292131  0.37660268    -0.02300
C1536       C  0.44662309  0.02116320  0.41993812    -0.16700
H1537       H  0.44673226  0.02287975  0.52531508     0.21300
H1538       H  0.42294567  0.97345412  0.44045001     0.19600
H1539       H  0.41701780  0.96322506  0.54033043     0.19600
H1540       H  0.45225554  0.03302522  0.42424224     0.15500
C1541       C  0.42687393  0.00831506  0.01474940     0.30900
C1542       C  0.42652329  0.01066064  0.96417007    -0.35400
C1543       C  0.42155236  0.99817875  0.93358874     0.16900
C1544       C  0.41723449  0.98434511  0.95155783     0.22700
C1545       C  0.41748573  0.98198672  0.00207832    -0.33600
C1546       C  0.42241265  0.99444018  0.03261610     0.16800
O1547       O  0.43185425  0.01851531  0.04970655    -0.25600
C1548       C  0.43045239  0.01105437  0.09059089     0.06600
C1549       C  0.42459160  0.99602578  0.08208074    -0.30500
O1550       O  0.41363721  0.97436744  0.91641330    -0.22300
C1551       C  0.41561457  0.98185266  0.87521601    -0.02300
C1552       C  0.42051252  0.99672820  0.88369589    -0.16700
H1553       H  0.43018651  0.02151413  0.94958366     0.21300
H1554       H  0.41435025  0.97123444  0.01650344     0.19600
H1555       H  0.42278464  0.98760264  0.10829219     0.19600
H1556       H  0.42335163  0.00529613  0.85694542     0.15500
C1557       C  0.19601635  0.82180109  0.55261191     0.30900
C1558       C  0.18078860  0.81530169  0.54981112    -0.35400
C1559       C  0.17278683  0.80003025  0.55441792     0.16900
C1560       C  0.17917470  0.79149623  0.56119806     0.22700
C1561       C  0.19460759  0.79805954  0.56360816    -0.33600
C1562       C  0.20273360  0.81354840  0.55908287     0.16800
O1563       O  0.20535604  0.83601624  0.55129783    -0.25600
C1564       C  0.21838150  0.83713998  0.55673180     0.06600
C1565       C  0.21752672  0.82350947  0.56162251    -0.30500
O1566       O  0.16922004  0.77734631  0.56639031    -0.22300
C1567       C  0.15645689  0.77708466  0.56283856    -0.02300
C1568       C  0.15810380  0.79086286  0.55530727    -0.16700
H1569       H  0.17550674  0.82178150  0.54538278     0.21300
H1570       H  0.19986810  0.79162444  0.56952596     0.19600
H1571       H  0.22639519  0.82132211  0.56756767     0.19600
H1572       H  0.14963143  0.79375478  0.55195265     0.15500
C1573       C  0.34708081  0.93019737  0.66236710     0.30900
C1574       C  0.33558909  0.93171629  0.64363649    -0.35400
C1575       C  0.32327287  0.91875821  0.62710292     0.16900
C1576       C  0.32215078  0.90510384  0.62912724     0.22700
C1577       C  0.33376682  0.90358508  0.64769574    -0.33600
C1578       C  0.34622116  0.91665257  0.66410348     0.16800
O1579       O  0.35967080  0.94099947  0.67892375    -0.25600
C1580       C  0.36710393  0.93441183  0.69156291     0.06600
C1581       C  0.35930770  0.91923177  0.68320024    -0.30500
O1582       O  0.30922972  0.89440416  0.61338678    -0.22300
C1583       C  0.30217060  0.90143794  0.60082026    -0.02300
C1584       C  0.31042728  0.91656896  0.60844465    -0.16700
H1585       H  0.33620794  0.94232559  0.64210340     0.21300
H1586       H  0.33311405  0.89297328  0.64948008     0.19600
H1587       H  0.36288527  0.91135352  0.68923427     0.19600
H1588       H  0.30718122  0.92473233  0.60283806     0.15500
C1589       C  0.23469050  0.90757753  0.84981687     0.30900
C1590       C  0.23305735  0.90878286  0.79928902    -0.35400
C1591       C  0.23904184  0.90243569  0.76831069     0.16900
C1592       C  0.24604777  0.89529955  0.78591313     0.22700
C1593       C  0.24776801  0.89418173  0.83641476    -0.33600
C1594       C  0.24188918  0.90063137  0.86738274     0.16800
O1595       O  0.22973173  0.91250106  0.88528612    -0.25600
C1596       C  0.23389421  0.90876580  0.92612424     0.06600
C1597       C  0.24155589  0.90140142  0.91726550    -0.30500
O1598       O  0.25061280  0.88997531  0.75051293    -0.22300
C1599       C  0.24657042  0.89381946  0.70966716    -0.02300
C1600       C  0.23934667  0.90162502  0.71842658    -0.16700
H1601       H  0.22746190  0.91423514  0.78514695     0.21300
H1602       H  0.25326636  0.88863143  0.85055431     0.19600
H1603       H  0.24597685  0.89703229  0.94368799     0.19600
H1604       H  0.23488177  0.90593832  0.69196124     0.15500
C1605       C  0.24735406  0.90794157  0.36870307     0.30900
C1606       C  0.24117996  0.91511616  0.34340502    -0.35400
C1607       C  0.24095116  0.91394924  0.29205856     0.16900
C1608       C  0.24655944  0.90637758  0.26721385     0.22700
C1609       C  0.25280030  0.89925631  0.29251379    -0.33600
C1610       C  0.25291790  0.90032000  0.34390458     0.16800
O1611       O  0.24782173  0.90682313  0.41674739    -0.25600
C1612       C  0.25374189  0.89835330  0.42293718     0.06600
C1613       C  0.25720671  0.89404048  0.37885552    -0.30500
O1614       O  0.24480523  0.90633097  0.21927076    -0.22300
C1615       C  0.23794753  0.91394385  0.21326682    -0.02300
C1616       C  0.23523689  0.91891980  0.25734350    -0.16700
H1617       H  0.23651786  0.92087024  0.36248659     0.21300
H1618       H  0.25694439  0.89301887  0.27350593     0.19600
H1619       H  0.26165667  0.88683388  0.37338383     0.19600
H1620       H  0.22965092  0.92508011  0.26298052     0.15500
loop_ 
_geom_bond_atom_site_label_1 
_geom_bond_atom_site_label_2 
_geom_bond_distance 
_geom_bond_site_symmetry_2 
_ccdc_geom_bond_type 
O1            C4   1.267       .  A
O1           Cd6   2.475       .  S
C2           O11   1.263       .  A
C2            O7   1.268       .  A
C2         C1599   1.469       .  S
O3            C9   1.270       .  A
O3           Cd6   2.527       .  S
C4           O12   1.268       .  A
C4         C1612   1.476       .  S
C5           O10   1.270       .  A
C5            O8   1.264       .  A
C5         C1583   1.470       .  S
Cd6          O13   2.407       .  S
Cd6          O12   2.481       .  S
Cd6          O11   2.446       .  S
Cd6           O7   2.491       .  S
Cd6          O10   2.503       .  S
Cd6           O8   2.408       .  S
C9           O13   1.262       .  A
C9         C1564   1.469       .  S
O14          C17   1.268       .  A
O14         Cd19   2.495       .  S
C15          O24   1.264       .  A
C15          O20   1.268       .  A
C15        C1532   1.472       .  S
O16          C22   1.269       .  A
O16         Cd19   2.536       .  S
C17          O25   1.266       .  A
C17        C1551   1.479       .  S
C18          O23   1.269       .  A
C18          O21   1.264       .  A
C18        C1580   1.470       .  S
Cd19         O26   2.396       .  S
Cd19         O25   2.480       .  S
Cd19         O24   2.450       .  S
Cd19         O20   2.497       .  S
Cd19         O23   2.503       .  S
Cd19         O21   2.429       .  S
C22          O26   1.263       .  A
C22        C1519   1.473       .  S
O27          C30   1.268       .  A
O27         Cd32   2.483       .  S
C28          O37   1.264       .  A
C28          O33   1.268       .  A
C28        C1535   1.471       .  S
O29          C35   1.270       .  A
O29         Cd32   2.533       .  S
C30          O38   1.267       .  A
C30        C1548   1.480       .  S
C31          O36   1.271       .  A
C31          O34   1.266       .  A
C31        C1503   1.477       .  S
Cd32         O39   2.419       .  S
Cd32         O38   2.490       .  S
Cd32         O37   2.461       .  S
Cd32         O33   2.486       .  S
Cd32         O36   2.506       .  S
Cd32         O34   2.448       .  S
C35          O39   1.262       .  A
C35        C1484   1.474       .  S
O40          C43   1.268       .  A
O40         Cd45   2.479       .  S
C41          O50   1.267       .  A
C41          O46   1.267       .  A
C41        C1455   1.477       .  S
O42          C48   1.271       .  A
O42         Cd45   2.517       .  S
C43          O51   1.265       .  A
C43        C1468   1.469       .  S
C44          O49   1.271       .  A
C44          O47   1.261       .  A
C44        C1436   1.472       .  S
Cd45         O52   2.437       .  S
Cd45         O51   2.448       .  S
Cd45         O50   2.482       .  S
Cd45         O46   2.483       .  S
Cd45         O49   2.539       .  S
Cd45         O47   2.408       .  S
C48          O52   1.265       .  A
C48        C1500   1.478       .  S
O53          C56   1.267       .  A
O53         Cd58   2.483       .  S
C54          O63   1.268   1_556  A
C54          O59   1.263       .  A
C54        C1596   1.471       .  S
O55          C61   1.270       .  A
O55         Cd58   2.534       .  S
C56          O64   1.267       .  A
C56        C1615   1.477       .  S
C57          O62   1.269       .  A
C57          O60   1.265       .  A
C57        C1423   1.476       .  S
Cd58         O65   2.414       .  S
Cd58         O64   2.484       .  S
Cd58         O63   2.496       .  S
Cd58         O59   2.454   1_554  S
Cd58         O62   2.514       .  S
Cd58         O60   2.435       .  S
C61          O65   1.262       .  A
C61        C1404   1.472       .  S
O66          C69   1.268       .  A
O66         Cd71   2.493       .  S
C67          O76   1.264   1_554  A
C67          O72   1.268   1_554  A
C67        C1471   1.469       .  S
O68          C74   1.270       .  A
O68         Cd71   2.520       .  S
C69          O77   1.267       .  A
C69        C1452   1.479       .  S
C70          O75   1.271       .  A
C70          O73   1.264       .  A
C70        C1420   1.471       .  S
Cd71         O78   2.402       .  S
Cd71         O77   2.486       .  S
Cd71         O76   2.443       .  S
Cd71         O72   2.486       .  S
Cd71         O75   2.518       .  S
Cd71         O73   2.413       .  S
C74          O78   1.262       .  A
C74        C1391   1.467       .  S
O79          C82   1.267       .  A
O79         Cd84   2.460       .  S
C80          O89   1.265       .  A
C80          O85   1.269   1_556  A
C80        C1343   1.465       .  S
O81          C87   1.271       .  A
O81         Cd84   2.506       .  S
C82          O90   1.266       .  A
C82        C1356   1.471       .  S
C83          O88   1.271       .  A
C83          O86   1.262       .  A
C83        C1327   1.469       .  S
Cd84         O91   2.426       .  S
Cd84         O90   2.476       .  S
Cd84         O89   2.421   1_554  S
Cd84         O85   2.474       .  S
Cd84         O88   2.514       .  S
Cd84         O86   2.413       .  S
C87          O91   1.265       .  A
C87        C1375   1.473       .  S
O92          C95   1.267       .  A
O92         Cd97   2.510       .  S
C93         O102   1.268       .  A
C93          O98   1.268       .  A
C93        C1292   1.478       .  S
O94         C100   1.269       .  A
O94         Cd97   2.537       .  S
C95         O103   1.263       .  A
C95        C1308   1.472   1_556  S
C96         O101   1.270       .  A
C96          O99   1.265       .  A
C96        C1372   1.476       .  S
Cd97        O104   2.410       .  S
Cd97        O103   2.444       .  S
Cd97        O102   2.481       .  S
Cd97         O98   2.484       .  S
Cd97        O101   2.517       .  S
Cd97         O99   2.430       .  S
C100        O104   1.261       .  A
C100       C1276   1.471       .  S
O105        C108   1.268       .  A
O105       Cd110   2.480       .  S
C106        O115   1.264       .  A
C106        O111   1.269       .  A
C106       C1311   1.472       .  S
O107        C113   1.270       .  A
O107       Cd110   2.497       .  S
C108        O116   1.267       .  A
C108       C1295   1.480       .  S
C109        O114   1.270       .  A
C109        O112   1.262       .  A
C109       C1244   1.466       .  S
Cd110       O117   2.419       .  S
Cd110       O116   2.500       .  S
Cd110       O115   2.450       .  S
Cd110       O111   2.488       .  S
Cd110       O114   2.517       .  S
Cd110       O112   2.400       .  S
C113        O117   1.264       .  A
C113       C1260   1.468       .  S
O118        C121   1.268       .  A
O118       Cd123   2.497       .  S
C119        O128   1.267       .  A
C119        O124   1.269       .  A
C119       C1228   1.476       .  S
O120        C126   1.270       .  A
O120       Cd123   2.522       .  S
C121        O129   1.263       .  A
C121       C1215   1.472       .  S
C122        O127   1.270       .  A
C122        O125   1.265       .  A
C122       C1263   1.469       .  S
Cd123       O130   2.411       .  S
Cd123       O129   2.462       .  S
Cd123       O128   2.474       .  S
Cd123       O124   2.475       .  S
Cd123       O127   2.497       .  S
Cd123       O125   2.416       .  S
C126        O130   1.262       .  A
C126       C1487   1.469       .  S
O131        C134   1.267       .  A
O131       Cd136   2.476       .  S
C132        O141   1.267       .  A
C132        O137   1.267       .  A
C132       C1231   1.477       .  S
O133        C139   1.269       .  A
O133       Cd136   2.527       .  S
C134        O142   1.263       .  A
C134       C1212   1.470       .  S
C135        O140   1.270       .  A
C135        O138   1.264       .  A
C135       C1196   1.472       .  S
Cd136       O143   2.414       .  S
Cd136       O142   2.461       .  S
Cd136       O141   2.478       .  S
Cd136       O137   2.488       .  S
Cd136       O140   2.507       .  S
Cd136       O138   2.432       .  S
C139        O143   1.262       .  A
C139       C1516   1.470       .  S
O144        C147   1.267       .  A
O144       Cd149   2.473       .  S
C145        O154   1.265       .  A
C145        O150   1.267       .  A
C145       C1340   1.466       .  S
O146        C152   1.271       .  A
O146       Cd149   2.506       .  S
C147        O155   1.266       .  A
C147       C1359   1.469       .  S
C148        O153   1.270       .  A
C148        O151   1.262       .  A
C148       C1180   1.472       .  S
Cd149       O156   2.425       .  S
Cd149       O155   2.451       .  S
Cd149       O154   2.443       .  S
Cd149       O150   2.467       .  S
Cd149       O153   2.524       .  S
Cd149       O151   2.409       .  S
C152        O156   1.265       .  A
C152       C1199   1.474       .  S
O157        C160   1.267       .  A
O157       Cd162   2.476       .  S
C158        O167   1.265       .  A
C158        O163   1.268       .  A
C158       C1167   1.467       .  S
O159        C165   1.270       .  A
O159       Cd162   2.519       .  S
C160        O168   1.267       .  A
C160       C1151   1.472       .  S
C161        O166   1.271       .  A
C161        O164   1.264       .  A
C161       C1135   1.472       .  S
Cd162       O169   2.415       .  S
Cd162       O168   2.461       .  S
Cd162       O167   2.440       .  S
Cd162       O163   2.476       .  S
Cd162       O166   2.503       .  S
Cd162       O164   2.427       .  S
C165        O169   1.263       .  A
C165       C1119   1.472       .  S
O170        C173   1.267       .  A
O170       Cd175   2.480       .  S
C171        O180   1.263       .  A
C171        O176   1.267       .  A
C171       C1084   1.468       .  S
O172        C178   1.270       .  A
O172       Cd175   2.536       .  S
C173        O181   1.268       .  A
C173       C1100   1.476       .  S
C174        O179   1.270       .  A
C174        O177   1.265       .  A
C174       C1132   1.477       .  S
Cd175       O182   2.406       .  S
Cd175       O181   2.474       .  S
Cd175       O180   2.445       .  S
Cd175       O176   2.493       .  S
Cd175       O179   2.522       .  S
Cd175       O177   2.432       .  S
C178        O182   1.261       .  A
C178       C1071   1.473       .  S
O183        C186   1.268       .  A
O183       Cd188   2.474       .  S
C184        O193   1.263       .  A
C184        O189   1.268       .  A
C184       C1039   1.465       .  S
O185        C191   1.271       .  A
O185       Cd188   2.530       .  S
C186        O194   1.267       .  A
C186       C1055   1.474       .  S
C187        O192   1.270       .  A
C187        O190   1.265       .  A
C187       C1023   1.471       .  S
Cd188       O195   2.393       .  S
Cd188       O194   2.470       .  S
Cd188       O193   2.446       .  S
Cd188       O189   2.465       .  S
Cd188       O192   2.489       .  S
Cd188       O190   2.423       .  S
C191        O195   1.261       .  A
C191       C1183   1.468       .  S
O196        C199   1.268       .  A
O196       Cd201   2.484       .  S
C197        O206   1.269       .  A
C197        O202   1.264       .  A
C197       C1087   1.470       .  S
O198        C204   1.270       .  A
O198       Cd201   2.521       .  S
C199        O207   1.267       .  A
C199       C1103   1.476       .  S
C200        O205   1.271       .  A
C200        O203   1.263       .  A
C200       C1020   1.472       .  S
Cd201       O208   2.431       .  S
Cd201       O207   2.471       .  S
Cd201       O206   2.484       .  S
Cd201       O202   2.453       .  S
Cd201       O205   2.518       .  S
Cd201       O203   2.426       .  S
C204        O208   1.263       .  A
C204       C1007   1.473       .  S
O209        C212   1.266       .  A
O209       Cd214   2.472       .  S
C210        O219   1.263       .  A
C210        O215   1.268   1_556  A
C210       C1036   1.463       .  S
O211        C217   1.270       .  A
O211       Cd214   2.525       .  S
C212        O220   1.267       .  A
C212       C1052   1.475       .  S
C213        O218   1.270       .  A
C213        O216   1.264       .  A
C213        C988   1.472       .  S
Cd214       O221   2.395       .  S
Cd214       O220   2.489       .  S
Cd214       O219   2.425   1_554  S
Cd214       O215   2.476       .  S
Cd214       O218   2.505       .  S
Cd214       O216   2.433       .  S
C217        O221   1.262       .  A
C217       C1324   1.470       .  S
O222        C225   1.267       .  A
O222       Cd227   2.468       .  S
C223        O232   1.265       .  A
C223        O228   1.269       .  A
C223       C1164   1.467   1_556  S
O224        C230   1.271       .  A
O224       Cd227   2.522       .  S
C225        O233   1.267       .  A
C225       C1148   1.472       .  S
C226        O231   1.271       .  A
C226        O229   1.265       .  A
C226        C991   1.470       .  S
Cd227       O234   2.374       .  S
Cd227       O233   2.469       .  S
Cd227       O232   2.433       .  S
Cd227       O228   2.480       .  S
Cd227       O231   2.498       .  S
Cd227       O229   2.398       .  S
C230        O234   1.262       .  A
C230        C972   1.467       .  S
O235        C238   1.266       .  A
O235       Cd240   2.468       .  S
C236        O245   1.265       .  A
C236        O241   1.269       .  A
C236        C956   1.467       .  S
O237        C243   1.271       .  A
O237       Cd240   2.502       .  S
C238        O246   1.266       .  A
C238        C940   1.469       .  S
C239        O244   1.270       .  A
C239        O242   1.263       .  A
C239       C1439   1.474       .  S
Cd240       O247   2.415       .  S
Cd240       O246   2.464       .  S
Cd240       O245   2.434       .  S
Cd240       O241   2.481       .  S
Cd240       O244   2.533       .  S
Cd240       O242   2.403       .  S
C243        O247   1.264       .  A
C243        C927   1.469       .  S
O248        C251   1.267       .  A
O248       Cd253   2.477       .  S
C249        O258   1.263       .  A
C249        O254   1.267       .  A
C249        C895   1.467       .  S
O250        C256   1.270       .  A
O250       Cd253   2.512       .  S
C251        O259   1.266       .  A
C251        C911   1.473       .  S
C252        O257   1.269       .  A
C252        O255   1.262       .  A
C252       C1068   1.470       .  S
Cd253       O260   2.421       .  S
Cd253       O259   2.468       .  S
Cd253       O258   2.441       .  S
Cd253       O254   2.494       .  S
Cd253       O257   2.523       .  S
Cd253       O255   2.419       .  S
C256        O260   1.265       .  A
C256        C924   1.473       .  S
O261        C264   1.269       .  A
O261       Cd266   2.495       .  S
C262        O271   1.263       .  A
C262        O267   1.268   1_556  A
C262        C844   1.471       .  S
O263        C269   1.270       .  A
O263       Cd266   2.496       .  S
C264        O272   1.267       .  A
C264        C860   1.478       .  S
C265        O270   1.269       .  A
C265        O268   1.262       .  A
C265        C831   1.471       .  S
Cd266       O273   2.438       .  S
Cd266       O272   2.468       .  S
Cd266       O271   2.444   1_554  S
Cd266       O267   2.495       .  S
Cd266       O270   2.530       .  S
Cd266       O268   2.418       .  S
C269        O273   1.264       .  A
C269        C876   1.471       .  S
O274        C277   1.267       .  A
O274       Cd279   2.464       .  S
C275        O284   1.263       .  A
C275        O280   1.268   1_554  A
C275        C959   1.465       .  S
O276        C282   1.270       .  A
O276       Cd279   2.498       .  S
C277        O285   1.267       .  A
C277        C943   1.469       .  S
C278        O283   1.269       .  A
C278        O281   1.262       .  A
C278       C1388   1.471       .  S
Cd279       O286   2.423       .  S
Cd279       O285   2.459       .  S
Cd279       O284   2.439   1_556  S
Cd279       O280   2.476       .  S
Cd279       O283   2.523       .  S
Cd279       O281   2.405       .  S
C282        O286   1.265       .  A
C282        C879   1.472       .  S
O287        C290   1.267       .  A
O287       Cd292   2.499       .  S
C288        O297   1.268       .  A
C288        O293   1.269       .  A
C288        C863   1.480       .  S
O289        C295   1.268       .  A
O289       Cd292   2.542       .  S
C290        O298   1.262       .  A
C290        C847   1.471       .  S
C291        O296   1.270       .  A
C291        O294   1.265       .  A
C291        C815   1.474       .  S
Cd292       O299   2.414       .  S
Cd292       O298   2.451       .  S
Cd292       O297   2.474       .  S
Cd292       O293   2.494       .  S
Cd292       O296   2.501       .  S
Cd292       O294   2.435       .  S
C295        O299   1.260       .  A
C295        C796   1.471       .  S
O300        C303   1.268       .  A
O300       Cd305   2.481       .  S
C301        O310   1.267       .  A
C301        O306   1.267       .  A
C301        C908   1.474       .  S
O302        C308   1.270       .  A
O302       Cd305   2.521       .  S
C303        O311   1.263       .  A
C303        C892   1.466       .  S
C304        O309   1.270       .  A
C304        O307   1.264       .  A
C304        C812   1.475       .  S
Cd305       O312   2.437       .  S
Cd305       O311   2.436       .  S
Cd305       O310   2.481       .  S
Cd305       O306   2.464       .  S
Cd305       O309   2.510       .  S
Cd305       O307   2.445       .  S
C308        O312   1.263       .  A
C308       C1004   1.476       .  S
O313        C316   1.268       .  A
O313       Cd318   2.487       .  S
C314        O323   1.263       .  A
C314        O319   1.266       .  A
C314        C767   1.467       .  S
O315        C321   1.269       .  A
O315       Cd318   2.512       .  S
C316        O324   1.266       .  A
C316        C783   1.473       .  S
C317        O322   1.268       .  A
C317        O320   1.262       .  A
C317        C735   1.467       .  S
Cd318       O325   2.417       .  S
Cd318       O324   2.453       .  S
Cd318       O323   2.454       .  S
Cd318       O319   2.482       .  S
Cd318       O322   2.511       .  S
Cd318       O320   2.421       .  S
C321        O325   1.264       .  A
C321        C748   1.472       .  S
O326        C329   1.267       .  A
O326       Cd331   2.482       .  S
C327        O336   1.267       .  A
C327        O332   1.266       .  A
C327        C700   1.469       .  S
O328        C334   1.269       .  A
O328       Cd331   2.524       .  S
C329        O337   1.263       .  A
C329        C716   1.462       .  S
C330        O335   1.269       .  A
C330        O333   1.264       .  A
C330        C751   1.473       .  S
Cd331       O338   2.415       .  S
Cd331       O337   2.425       .  S
Cd331       O336   2.453       .  S
Cd331       O332   2.472       .  S
Cd331       O335   2.517       .  S
Cd331       O333   2.434       .  S
C334        O338   1.261       .  A
C334       C1116   1.469       .  S
O339        C342   1.267       .  A
O339       Cd344   2.476       .  S
C340        O349   1.264       .  A
C340        O345   1.268   1_556  A
C340        C668   1.468       .  S
O341        C347   1.271       .  A
O341       Cd344   2.514       .  S
C342        O350   1.266       .  A
C342        C687   1.475       .  S
C343        O348   1.270       .  A
C343        O346   1.263       .  A
C343       C1407   1.478       .  S
Cd344       O351   2.424       .  S
Cd344       O350   2.480       .  S
Cd344       O349   2.434   1_554  S
Cd344       O345   2.486       .  S
Cd344       O348   2.538       .  S
Cd344       O346   2.423       .  S
C347        O351   1.264       .  A
C347        C652   1.471       .  S
O352        C355   1.270       .  A
O352       Cd357   2.483       .  S
C353        O362   1.266       .  A
C353        O358   1.267       .  A
C353        C703   1.471       .  S
O354        C360   1.269       .  A
O354       Cd357   2.507       .  S
C355        O363   1.263       .  A
C355        C719   1.464   1_556  S
C356        O361   1.270       .  A
C356        O359   1.265       .  A
C356        C655   1.468       .  S
Cd357       O364   2.386       .  S
Cd357       O363   2.423       .  S
Cd357       O362   2.464       .  S
Cd357       O358   2.472       .  S
Cd357       O361   2.487       .  S
Cd357       O359   2.402       .  S
C360        O364   1.262       .  A
C360        C975   1.462       .  S
O365        C368   1.267       .  A
O365       Cd370   2.485       .  S
C366        O375   1.264       .  A
C366        O371   1.268       .  A
C366        C671   1.467       .  S
O367        C373   1.270       .  A
O367       Cd370   2.486       .  S
C368        O376   1.266       .  A
C368        C684   1.475       .  S
C369        O374   1.269       .  A
C369        O372   1.262       .  A
C369       C1567   1.469       .  S
Cd370       O377   2.400       .  S
Cd370       O376   2.471       .  S
Cd370       O375   2.449       .  S
Cd370       O371   2.475       .  S
Cd370       O374   2.522       .  S
Cd370       O372   2.390       .  S
C373        O377   1.264       .  A
C373        C636   1.464       .  S
O378        C381   1.268       .  A
O378       Cd383   2.465       .  S
C379        O388   1.268       .  A
C379        O384   1.263       .  A
C379        C764   1.470       .  S
O380        C386   1.270       .  A
O380       Cd383   2.498       .  S
C381        O389   1.267       .  A
C381        C780   1.476       .  S
C382        O387   1.263       .  A
C382        O385   1.269       .  A
C382        C620   1.471       .  S
Cd383       O390   2.413       .  S
Cd383       O389   2.486       .  S
Cd383       O388   2.485       .  S
Cd383       O384   2.454       .  S
Cd383       O387   2.406       .  S
Cd383       O385   2.519       .  S
C386        O390   1.264       .  A
C386        C639   1.469       .  S
O391        C394   1.267       .  A
O391       Cd396   2.466       .  S
C392        O401   1.263       .  A
C392        O397   1.267       .  A
C392        C588   1.470   1_556  S
O393        C399   1.268       .  A
O393       Cd396   2.523       .  S
C394        O402   1.267       .  A
C394        C607   1.472       .  S
C395        O400   1.269       .  A
C395        O398   1.264       .  A
C395        C572   1.471       .  S
Cd396       O403   2.419       .  S
Cd396       O402   2.475       .  S
Cd396       O401   2.450       .  S
Cd396       O397   2.495       .  S
Cd396       O400   2.505       .  S
Cd396       O398   2.421       .  S
C399        O403   1.263       .  A
C399       C1279   1.472       .  S
O404        C407   1.268       .  A
O404       Cd409   2.469       .  S
C405        O414   1.262       .  A
C405        O410   1.267   1_556  A
C405        C543   1.471       .  S
O406        C412   1.269       .  A
O406       Cd409   2.532       .  S
C407        O415   1.267       .  A
C407        C559   1.474       .  S
C408        O413   1.270       .  A
C408        O411   1.264       .  A
C408        C575   1.471       .  S
Cd409       O416   2.415       .  S
Cd409       O415   2.469       .  S
Cd409       O414   2.451   1_554  S
Cd409       O410   2.502       .  S
Cd409       O413   2.505       .  S
Cd409       O411   2.430       .  S
C412        O416   1.262       .  A
C412        C828   1.473       .  S
O417        C420   1.268       .  A
O417       Cd422   2.463       .  S
C418        O427   1.262       .  A
C418        O423   1.268       .  A
C418        C591   1.467       .  S
O419        C425   1.269       .  A
O419       Cd422   2.518       .  S
C420        O428   1.267       .  A
C420        C604   1.472       .  S
C421        O426   1.270       .  A
C421        O424   1.265       .  A
C421        C527   1.468       .  S
Cd422       O429   2.398       .  S
Cd422       O428   2.474       .  S
Cd422       O427   2.442       .  S
Cd422       O423   2.486       .  S
Cd422       O426   2.496       .  S
Cd422       O424   2.397       .  S
C425        O429   1.262       .  A
C425       C1247   1.469       .  S
O430        C433   1.269       .  A
O430       Cd435   2.490       .  S
C431        O440   1.263       .  A
C431        O436   1.268       .  A
C431        C495   1.472       .  S
O432        C438   1.268       .  A
O432       Cd435   2.514       .  S
C433        O441   1.267       .  A
C433        C508   1.476       .  S
C434        O439   1.269       .  A
C434        O437   1.264       .  A
C434        C524   1.467       .  S
Cd435       O442   2.412       .  S
Cd435       O441   2.465       .  S
Cd435       O440   2.459       .  S
Cd435       O436   2.496       .  S
Cd435       O439   2.500       .  S
Cd435       O437   2.414       .  S
C438        O442   1.262       .  A
C438        C732   1.469       .  S
O443        C446   1.268       .  A
O443       Cd448   2.478       .  S
C444        O453   1.262       .  A
C444        O449   1.268       .  A
C444        C540   1.471       .  S
O445        C451   1.268       .  A
O445       Cd448   2.523       .  S
C446        O454   1.268       .  A
C446        C556   1.477       .  S
C447        O452   1.269       .  A
C447        O450   1.265       .  A
C447        C476   1.474       .  S
Cd448       O455   2.429       .  S
Cd448       O454   2.487       .  S
Cd448       O453   2.451       .  S
Cd448       O449   2.500       .  S
Cd448       O452   2.506       .  S
Cd448       O450   2.439       .  S
C451        O455   1.263       .  A
C451        C799   1.473       .  S
O456        C459   1.269       .  A
O456       Cd461   2.488       .  S
C457        O466   1.263       .  A
C457        O462   1.267       .  A
C457        C492   1.471       .  S
O458        C464   1.261       .  A
O458       Cd461   2.409       .  S
C459        O467   1.267       .  A
C459        C511   1.476       .  S
C460        O465   1.269       .  A
C460        O463   1.264       .  A
C460        C479   1.473       .  S
Cd461       O468   2.522       .  S
Cd461       O467   2.466       .  S
Cd461       O466   2.443       .  S
Cd461       O462   2.504       .  S
Cd461       O465   2.513       .  S
Cd461       O463   2.437       .  S
C464        O468   1.268       .  A
C464        C623   1.467       .  S
C469        C474   1.380       .  A
C469        C470   1.410       .  A
C469        O475   1.325       .  A
C470        C471   1.409       .  A
C470        H481   1.083       .  S
C471        C480   1.370       .  A
C471        C472   1.380       .  A
C472        C473   1.400       .  A
C472        O478   1.315       .  A
C473        C474   1.399       .  A
C473        H482   1.084       .  S
C474        C477   1.357       .  A
O475        C476   1.334       .  A
C476        C477   1.389       .  A
C477        H483   1.083       .  S
O478        C479   1.329       .  A
C479        C480   1.395       .  A
C480        H484   1.083       .  S
C485        C490   1.381   1_655  A
C485        C486   1.405       .  A
C485        O491   1.322       .  A
C486        C487   1.405       .  A
C486        H497   1.082       .  S
C487        C496   1.362       .  A
C487        C488   1.381       .  A
C488        C489   1.402   1_655  A
C488        O494   1.320       .  A
C489        C490   1.402       .  A
C489        H498   1.082       .  S
C490        C493   1.359       .  A
O491        C492   1.332   1_655  A
C492        C493   1.390       .  A
C493        H499   1.082       .  S
O494        C495   1.330       .  A
C495        C496   1.393       .  A
C496        H500   1.082       .  S
C501        C506   1.380   1_655  A
C501        C502   1.406   1_554  A
C501        O507   1.320       .  A
C502        C503   1.405       .  A
C502        H513   1.082       .  S
C503        C512   1.366       .  A
C503        C504   1.380   1_655  A
C504        C505   1.406   1_556  A
C504        O510   1.320       .  A
C505        C506   1.405       .  A
C505        H514   1.082       .  S
C506        C509   1.366       .  A
O507        C508   1.332       .  A
C508        C509   1.393   1_655  A
C509        H515   1.082       .  S
O510        C511   1.332       .  A
C511        C512   1.393   1_455  A
C512        H516   1.082       .  S
C517        C522   1.381       .  A
C517        C518   1.396       .  A
C517        O523   1.313       .  A
C518        C519   1.395       .  A
C518        H529   1.083       .  S
C519        C528   1.352       .  A
C519        C520   1.380       .  A
C520        C521   1.409       .  A
C520        O526   1.324       .  A
C521        C522   1.409       .  A
C521        H530   1.083       .  S
C522        C525   1.369       .  A
O523        C524   1.327       .  A
C524        C525   1.394       .  A
C525        H531   1.082       .  S
O526        C527   1.334       .  A
C527        C528   1.387       .  A
C528        H532   1.083       .  S
C533        C538   1.380       .  A
C533        C534   1.406       .  A
C533        O539   1.319       .  A
C534        C535   1.404       .  A
C534        H545   1.081       .  S
C535        C544   1.366       .  A
C535        C536   1.380       .  A
C536        C537   1.404       .  A
C536        O542   1.317       .  A
C537        C538   1.402       .  A
C537        H546   1.081       .  S
C538        C541   1.364       .  A
O539        C540   1.332       .  A
C540        C541   1.391       .  A
C541        H547   1.082       .  S
O542        C543   1.331       .  A
C543        C544   1.392       .  A
C544        H548   1.082       .  S
C549        C554   1.380       .  A
C549        C550   1.406       .  A
C549        O555   1.322       .  A
C550        C551   1.405       .  A
C550        H561   1.082       .  S
C551        C560   1.364       .  A
C551        C552   1.380       .  A
C552        C553   1.405       .  A
C552        O558   1.321       .  A
C553        C554   1.405       .  A
C553        H562   1.082       .  S
C554        C557   1.364       .  A
O555        C556   1.333       .  A
C556        C557   1.392       .  A
C557        H563   1.082       .  S
O558        C559   1.332       .  A
C559        C560   1.392       .  A
C560        H564   1.082       .  S
C565        C570   1.380       .  A
C565        C566   1.409       .  A
C565        O571   1.324       .  A
C566        C567   1.408   1_656  A
C566        H577   1.082       .  S
C567        C576   1.369       .  A
C567        C568   1.381       .  A
C568        C569   1.399   1_554  A
C568        O574   1.315       .  A
C569        C570   1.398   1_455  A
C569        H578   1.083       .  S
C570        C573   1.355       .  A
O571        C572   1.334       .  A
C572        C573   1.389       .  A
C573        H579   1.083       .  S
O574        C575   1.329       .  A
C575        C576   1.394       .  A
C576        H580   1.082       .  S
C581        C586   1.380       .  A
C581        C582   1.403       .  A
C581        O587   1.317       .  A
C582        C583   1.401       .  A
C582        H593   1.082       .  S
C583        C592   1.363       .  A
C583        C584   1.380       .  A
C584        C585   1.405       .  A
C584        O590   1.318       .  A
C585        C586   1.403       .  A
C585        H594   1.082       .  S
C586        C589   1.365       .  A
O587        C588   1.330       .  A
C588        C589   1.392       .  A
C589        H595   1.082       .  S
O590        C591   1.331       .  A
C591        C592   1.389       .  A
C592        H596   1.082       .  S
C597        C602   1.380       .  A
C597        C598   1.404       .  A
C597        O603   1.321       .  A
C598        C599   1.404       .  A
C598        H609   1.082       .  S
C599        C608   1.362       .  A
C599        C600   1.380       .  A
C600        C601   1.404       .  A
C600        O606   1.320       .  A
C601        C602   1.403       .  A
C601        H610   1.082       .  S
C602        C605   1.362       .  A
O603        C604   1.332       .  A
C604        C605   1.391       .  A
C605        H611   1.082       .  S
O606        C607   1.331       .  A
C607        C608   1.392       .  A
C608        H612   1.082       .  S
C613        C618   1.380       .  A
C613        C614   1.411       .  A
C613        O619   1.326       .  A
C614        C615   1.410       .  A
C614        H625   1.082       .  S
C615        C624   1.371       .  A
C615        C616   1.381       .  A
C616        C617   1.396       .  A
C616        O622   1.312       .  A
C617        C618   1.395       .  A
C617        H626   1.083       .  S
C618        C621   1.352       .  A
O619        C620   1.334       .  A
C620        C621   1.387       .  A
C621        H627   1.083       .  S
O622        C623   1.326       .  A
C623        C624   1.395       .  A
C624        H628   1.082       .  S
C629        C634   1.381       .  A
C629        C630   1.397       .  A
C629        O635   1.312       .  A
C630        C631   1.396       .  A
C630        H641   1.083       .  S
C631        C640   1.354       .  A
C631        C632   1.380       .  A
C632        C633   1.408       .  A
C632        O638   1.323       .  A
C633        C634   1.407       .  A
C633        H642   1.082       .  S
C634        C637   1.368       .  A
O635        C636   1.327       .  A
C636        C637   1.393       .  A
C637        H643   1.082       .  S
O638        C639   1.333       .  A
C639        C640   1.388       .  A
C640        H644   1.083       .  S
C645        C650   1.380       .  A
C645        C646   1.398   1_554  A
C645        O651   1.314       .  A
C646        C647   1.397   1_455  A
C646        H657   1.083       .  S
C647        C656   1.354       .  A
C647        C648   1.380       .  A
C648        C649   1.409   1_655  A
C648        O654   1.323       .  A
C649        C650   1.409   1_556  A
C649        H658   1.082       .  S
C650        C653   1.370       .  A
O651        C652   1.329       .  A
C652        C653   1.395       .  A
C653        H659   1.082       .  S
O654        C655   1.333       .  A
C655        C656   1.388       .  A
C656        H660   1.083       .  S
C661        C666   1.381       .  A
C661        C662   1.404       .  A
C661        O667   1.321       .  A
C662        C663   1.404       .  A
C662        H673   1.081       .  S
C663        C672   1.362       .  A
C663        C664   1.381       .  A
C664        C665   1.401       .  A
C664        O670   1.318       .  A
C665        C666   1.401       .  A
C665        H674   1.081       .  S
C666        C669   1.358       .  A
O667        C668   1.331       .  A
C668        C669   1.390       .  A
C669        H675   1.082       .  S
O670        C671   1.329       .  A
C671        C672   1.392       .  A
C672        H676   1.082       .  S
C677        C682   1.380       .  A
C677        C678   1.405       .  A
C677        O683   1.320       .  A
C678        C679   1.404       .  A
C678        H689   1.082       .  S
C679        C688   1.363       .  A
C679        C680   1.380       .  A
C680        C681   1.406       .  A
C680        O686   1.321       .  A
C681        C682   1.405       .  A
C681        H690   1.082       .  S
C682        C685   1.365       .  A
O683        C684   1.331       .  A
C684        C685   1.393       .  A
C685        H691   1.082       .  S
O686        C687   1.332       .  A
C687        C688   1.392       .  A
C688        H692   1.082       .  S
C693        C698   1.380       .  A
C693        C694   1.406       .  A
C693        O699   1.321       .  A
C694        C695   1.405       .  A
C694        H705   1.082       .  S
C695        C704   1.364       .  A
C695        C696   1.381       .  A
C696        C697   1.402       .  A
C696        O702   1.319       .  A
C697        C698   1.401       .  A
C697        H706   1.082       .  S
C698        C701   1.360       .  A
O699        C700   1.332       .  A
C700        C701   1.389       .  A
C701        H707   1.082       .  S
O702        C703   1.330       .  A
C703        C704   1.393       .  A
C704        H708   1.082       .  S
C709        C714   1.381       .  A
C709        C710   1.401       .  A
C709        O715   1.314       .  A
C710        C711   1.399       .  A
C710        H721   1.082       .  S
C711        C720   1.362       .  A
C711        C712   1.380       .  A
C712        C713   1.404       .  A
C712        O718   1.316       .  A
C713        C714   1.402       .  A
C713        H722   1.082       .  S
C714        C717   1.364       .  A
O715        C716   1.328       .  A
C716        C717   1.391       .  A
C717        H723   1.082       .  S
O718        C719   1.331       .  A
C719        C720   1.389       .  A
C720        H724   1.082       .  S
C725        C730   1.381       .  A
C725        C726   1.408       .  A
C725        O731   1.324       .  A
C726        C727   1.408       .  A
C726        H737   1.082       .  S
C727        C736   1.369       .  A
C727        C728   1.381       .  A
C728        C729   1.397       .  A
C728        O734   1.313       .  A
C729        C730   1.396       .  A
C729        H738   1.083       .  S
C730        C733   1.354       .  A
O731        C732   1.333       .  A
C732        C733   1.388       .  A
C733        H739   1.083       .  S
O734        C735   1.327       .  A
C735        C736   1.393       .  A
C736        H740   1.082       .  S
C741        C746   1.380       .  A
C741        C742   1.410       .  A
C741        O747   1.325       .  A
C742        C743   1.410       .  A
C742        H753   1.083       .  S
C743        C752   1.371       .  A
C743        C744   1.381       .  A
C744        C745   1.398       .  A
C744        O750   1.315       .  A
C745        C746   1.397       .  A
C745        H754   1.083       .  S
C746        C749   1.354       .  A
O747        C748   1.335       .  A
C748        C749   1.388       .  A
C749        H755   1.083       .  S
O750        C751   1.328       .  A
C751        C752   1.396       .  A
C752        H756   1.082       .  S
C757        C762   1.380   1_455  A
C757        C758   1.404       .  A
C757        O763   1.319       .  A
C758        C759   1.403       .  A
C758        H769   1.082       .  S
C759        C768   1.363       .  A
C759        C760   1.381   1_455  A
C760        C761   1.403       .  A
C760        O766   1.318       .  A
C761        C762   1.402       .  A
C761        H770   1.082       .  S
C762        C765   1.363       .  A
O763        C764   1.332       .  A
C764        C765   1.390   1_455  A
C765        H771   1.082       .  S
O766        C767   1.330       .  A
C767        C768   1.391   1_655  A
C768        H772   1.082       .  S
C773        C778   1.380       .  A
C773        C774   1.409   1_556  A
C773        O779   1.323       .  A
C774        C775   1.408       .  A
C774        H785   1.082       .  S
C775        C784   1.368       .  A
C775        C776   1.380   1_455  A
C776        C777   1.402   1_554  A
C776        O782   1.318       .  A
C777        C778   1.401   1_655  A
C777        H786   1.082       .  S
C778        C781   1.360       .  A
O779        C780   1.334       .  A
C780        C781   1.390       .  A
C781        H787   1.082   1_455  S
O782        C783   1.329       .  A
C783        C784   1.394   1_655  A
C784        H788   1.082       .  S
C789        C794   1.381       .  A
C789        C790   1.397       .  A
C789        O795   1.312       .  A
C790        C791   1.395       .  A
C790        H801   1.083       .  S
C791        C800   1.354       .  A
C791        C792   1.380       .  A
C792        C793   1.412       .  A
C792        O798   1.326       .  A
C793        C794   1.411       .  A
C793        H802   1.083       .  S
C794        C797   1.374       .  A
O795        C796   1.327       .  A
C796        C797   1.397       .  A
C797        H803   1.082       .  S
O798        C799   1.335       .  A
C799        C800   1.387       .  A
C800        H804   1.083       .  S
C805        C810   1.380       .  A
C805        C806   1.402       .  A
C805        O811   1.318       .  A
C806        C807   1.401       .  A
C806        H817   1.083       .  S
C807        C816   1.359       .  A
C807        C808   1.380       .  A
C808        C809   1.408       .  A
C808        O814   1.324       .  A
C809        C810   1.408       .  A
C809        H818   1.083       .  S
C810        C813   1.368       .  A
O811        C812   1.331       .  A
C812        C813   1.394       .  A
C813        H819   1.082       .  S
O814        C815   1.333       .  A
C815        C816   1.391       .  A
C816        H820   1.083       .  S
C821        C826   1.380       .  A
C821        C822   1.411       .  A
C821        O827   1.326       .  A
C822        C823   1.410       .  A
C822        H833   1.082       .  S
C823        C832   1.372       .  A
C823        C824   1.381       .  A
C824        C825   1.397       .  A
C824        O830   1.313       .  A
C825        C826   1.396       .  A
C825        H834   1.083       .  S
C826        C829   1.354       .  A
O827        C828   1.334       .  A
C828        C829   1.388       .  A
C829        H835   1.083       .  S
O830        C831   1.328       .  A
C831        C832   1.395       .  A
C832        H836   1.082       .  S
C837        C842   1.381       .  A
C837        C838   1.404       .  A
C837        O843   1.321       .  A
C838        C839   1.404       .  A
C838        H849   1.081       .  S
C839        C848   1.361       .  A
C839        C840   1.381       .  A
C840        C841   1.403       .  A
C840        O846   1.321       .  A
C841        C842   1.403       .  A
C841        H850   1.081       .  S
C842        C845   1.360       .  A
O843        C844   1.331       .  A
C844        C845   1.391       .  A
C845        H851   1.082       .  S
O846        C847   1.330       .  A
C847        C848   1.392       .  A
C848        H852   1.082       .  S
C853        C858   1.380       .  A
C853        C854   1.406       .  A
C853        O859   1.323       .  A
C854        C855   1.406       .  A
C854        H865   1.082       .  S
C855        C864   1.364       .  A
C855        C856   1.380       .  A
C856        C857   1.406       .  A
C856        O862   1.323       .  A
C857        C858   1.406       .  A
C857        H866   1.082       .  S
C858        C861   1.364       .  A
O859        C860   1.333       .  A
C860        C861   1.393       .  A
C861        H867   1.082       .  S
O862        C863   1.333       .  A
C863        C864   1.393       .  A
C864        H868   1.082       .  S
C869        C874   1.381       .  A
C869        C870   1.401   1_554  A
C869        O875   1.317       .  A
C870        C871   1.401       .  A
C870        H881   1.084       .  S
C871        C880   1.358       .  A
C871        C872   1.380       .  A
C872        C873   1.406       .  A
C872        O878   1.323       .  A
C873        C874   1.406   1_556  A
C873        H882   1.083       .  S
C874        C877   1.366       .  A
O875        C876   1.330       .  A
C876        C877   1.392       .  A
C877        H883   1.083       .  S
O878        C879   1.332       .  A
C879        C880   1.390       .  A
C880        H884   1.083       .  S
C885        C890   1.380       .  A
C885        C886   1.404       .  A
C885        O891   1.317       .  A
C886        C887   1.402       .  A
C886        H897   1.082       .  S
C887        C896   1.365       .  A
C887        C888   1.381       .  A
C888        C889   1.403       .  A
C888        O894   1.316       .  A
C889        C890   1.401       .  A
C889        H898   1.082       .  S
C890        C893   1.363       .  A
O891        C892   1.331       .  A
C892        C893   1.390       .  A
C893        H899   1.082       .  S
O894        C895   1.330       .  A
C895        C896   1.391       .  A
C896        H900   1.082       .  S
C901        C906   1.380       .  A
C901        C902   1.406   1_556  A
C901        O907   1.322       .  A
C902        C903   1.405       .  A
C902        H913   1.082       .  S
C903        C912   1.364       .  A
C903        C904   1.380       .  A
C904        C905   1.404   1_554  A
C904        O910   1.320       .  A
C905        C906   1.403       .  A
C905        H914   1.082       .  S
C906        C909   1.362       .  A
O907        C908   1.332       .  A
C908        C909   1.391       .  A
C909        H915   1.082       .  S
O910        C911   1.331       .  A
C911        C912   1.392       .  A
C912        H916   1.082       .  S
C917        C922   1.380       .  A
C917        C918   1.410       .  A
C917        O923   1.325       .  A
C918        C919   1.409       .  A
C918        H929   1.082       .  S
C919        C928   1.369       .  A
C919        C920   1.380       .  A
C920        C921   1.398       .  A
C920        O926   1.314       .  A
C921        C922   1.398       .  A
C921        H930   1.083       .  S
C922        C925   1.355       .  A
O923        C924   1.334       .  A
C924        C925   1.389       .  A
C925        H931   1.083       .  S
O926        C927   1.329       .  A
C927        C928   1.394       .  A
C928        H932   1.082       .  S
C933        C938   1.381       .  A
C933        C934   1.403       .  A
C933        O939   1.319       .  A
C934        C935   1.402       .  A
C934        H945   1.082       .  S
C935        C944   1.361       .  A
C935        C936   1.380       .  A
C936        C937   1.404       .  A
C936        O942   1.320       .  A
C937        C938   1.404       .  A
C937        H946   1.082       .  S
C938        C941   1.362       .  A
O939        C940   1.330       .  A
C940        C941   1.392       .  A
C941        H947   1.082       .  S
O942        C943   1.331       .  A
C943        C944   1.390       .  A
C944        H948   1.082       .  S
C949        C954   1.381       .  A
C949        C950   1.403       .  A
C949        O955   1.316       .  A
C950        C951   1.401       .  A
C950        H961   1.082       .  S
C951        C960   1.362       .  A
C951        C952   1.381       .  A
C952        C953   1.403       .  A
C952        O958   1.317       .  A
C953        C954   1.402       .  A
C953        H962   1.082       .  S
C954        C957   1.364       .  A
O955        C956   1.330       .  A
C956        C957   1.390       .  A
C957        H963   1.082       .  S
O958        C959   1.330       .  A
C959        C960   1.390       .  A
C960        H964   1.082       .  S
C965        C970   1.380       .  A
C965        C966   1.410       .  A
C965        O971   1.326       .  A
C966        C967   1.410       .  A
C966        H977   1.083       .  S
C967        C976   1.370       .  A
C967        C968   1.381       .  A
C968        C969   1.392       .  A
C968        O974   1.309       .  A
C969        C970   1.391       .  A
C969        H978   1.084       .  S
C970        C973   1.347       .  A
O971        C972   1.334       .  A
C972        C973   1.386       .  A
C973        H979   1.084       .  S
O974        C975   1.325       .  A
C975        C976   1.395       .  A
C976        H980   1.082       .  S
C981        C986   1.381       .  A
C981        C982   1.399       .  A
C981        O987   1.315   1_556  A
C982        C983   1.398       .  A
C982        H993   1.083       .  S
C983        C992   1.354       .  A
C983        C984   1.380       .  A
C984        C985   1.408       .  A
C984        O990   1.324       .  A
C985        C986   1.408       .  A
C985        H994   1.082       .  S
C986        C989   1.369   1_556  A
O987        C988   1.329       .  A
C988        C989   1.394       .  A
C989        H995   1.082       .  S
O990        C991   1.333       .  A
C991        C992   1.389       .  A
C992        H996   1.083       .  S
C997       C1002   1.380       .  A
C997        C998   1.409       .  A
C997       O1003   1.325       .  A
C998        C999   1.408       .  A
C998       H1009   1.082       .  S
C999       C1008   1.370       .  A
C999       C1000   1.380       .  A
C1000      C1001   1.401       .  A
C1000      O1006   1.316       .  A
C1001      C1002   1.400       .  A
C1001      H1010   1.083       .  S
C1002      C1005   1.359       .  A
O1003      C1004   1.333       .  A
C1004      C1005   1.391       .  A
C1005      H1011   1.083       .  S
O1006      C1007   1.330       .  A
C1007      C1008   1.394       .  A
C1008      H1012   1.082       .  S
C1013      C1018   1.380       .  A
C1013      C1014   1.401       .  A
C1013      O1019   1.316       .  A
C1014      C1015   1.399       .  A
C1014      H1025   1.083       .  S
C1015      C1024   1.358       .  A
C1015      C1016   1.380       .  A
C1016      C1017   1.408       .  A
C1016      O1022   1.323       .  A
C1017      C1018   1.407       .  A
C1017      H1026   1.082       .  S
C1018      C1021   1.369       .  A
O1019      C1020   1.330       .  A
C1020      C1021   1.394       .  A
C1021      H1027   1.082       .  S
O1022      C1023   1.333       .  A
C1023      C1024   1.390       .  A
C1024      H1028   1.083       .  S
C1029      C1034   1.381       .  A
C1029      C1030   1.400       .  A
C1029      O1035   1.315       .  A
C1030      C1031   1.398       .  A
C1030      H1041   1.083       .  S
C1031      C1040   1.359       .  A
C1031      C1032   1.381       .  A
C1032      C1033   1.405       .  A
C1032      O1038   1.318       .  A
C1033      C1034   1.403       .  A
C1033      H1042   1.083       .  S
C1034      C1037   1.364       .  A
O1035      C1036   1.329       .  A
C1036      C1037   1.391       .  A
C1037      H1043   1.082       .  S
O1038      C1039   1.332       .  A
C1039      C1040   1.388       .  A
C1040      H1044   1.082       .  S
C1045      C1050   1.380       .  A
C1045      C1046   1.405       .  A
C1045      O1051   1.321       .  A
C1046      C1047   1.405       .  A
C1046      H1057   1.082       .  S
C1047      C1056   1.364       .  A
C1047      C1048   1.380       .  A
C1048      C1049   1.405       .  A
C1048      O1054   1.321       .  A
C1049      C1050   1.405       .  A
C1049      H1058   1.082       .  S
C1050      C1053   1.364       .  A
O1051      C1052   1.332       .  A
C1052      C1053   1.393       .  A
C1053      H1059   1.082       .  S
O1054      C1055   1.332       .  A
C1055      C1056   1.392       .  A
C1056      H1060   1.082       .  S
C1061      C1066   1.381       .  A
C1061      C1062   1.397       .  A
C1061      O1067   1.313       .  A
C1062      C1063   1.396       .  A
C1062      H1073   1.083       .  S
C1063      C1072   1.353       .  A
C1063      C1064   1.380       .  A
C1064      C1065   1.411       .  A
C1064      O1070   1.326       .  A
C1065      C1066   1.410       .  A
C1065      H1074   1.082       .  S
C1066      C1069   1.371       .  A
O1067      C1068   1.328       .  A
C1068      C1069   1.395       .  A
C1069      H1075   1.082       .  S
O1070      C1071   1.335       .  A
C1071      C1072   1.388       .  A
C1072      H1076   1.083       .  S
C1077      C1082   1.380       .  A
C1077      C1078   1.403       .  A
C1077      O1083   1.317       .  A
C1078      C1079   1.401       .  A
C1078      H1089   1.082       .  S
C1079      C1088   1.363       .  A
C1079      C1080   1.380       .  A
C1080      C1081   1.406       .  A
C1080      O1086   1.319       .  A
C1081      C1082   1.404       .  A
C1081      H1090   1.082       .  S
C1082      C1085   1.365       .  A
O1083      C1084   1.330       .  A
C1084      C1085   1.392       .  A
C1085      H1091   1.082       .  S
O1086      C1087   1.332       .  A
C1087      C1088   1.390       .  A
C1088      H1092   1.082       .  S
C1093      C1098   1.380       .  A
C1093      C1094   1.406       .  A
C1093      O1099   1.322       .  A
C1094      C1095   1.406   1_554  A
C1094      H1105   1.082       .  S
C1095      C1104   1.364       .  A
C1095      C1096   1.380       .  A
C1096      C1097   1.405       .  A
C1096      O1102   1.322       .  A
C1097      C1098   1.405   1_556  A
C1097      H1106   1.082       .  S
C1098      C1101   1.364       .  A
O1099      C1100   1.333       .  A
C1100      C1101   1.392       .  A
C1101      H1107   1.082       .  S
O1102      C1103   1.332       .  A
C1103      C1104   1.393       .  A
C1104      H1108   1.082       .  S
C1109      C1114   1.381       .  A
C1109      C1110   1.398       .  A
C1109      O1115   1.313       .  A
C1110      C1111   1.397       .  A
C1110      H1121   1.083       .  S
C1111      C1120   1.354       .  A
C1111      C1112   1.380       .  A
C1112      C1113   1.410       .  A
C1112      O1118   1.325       .  A
C1113      C1114   1.409       .  A
C1113      H1122   1.082       .  S
C1114      C1117   1.371       .  A
O1115      C1116   1.328       .  A
C1116      C1117   1.395       .  A
C1117      H1123   1.082       .  S
O1118      C1119   1.334       .  A
C1119      C1120   1.388       .  A
C1120      H1124   1.083       .  S
C1125      C1130   1.380       .  A
C1125      C1126   1.410       .  A
C1125      O1131   1.326       .  A
C1126      C1127   1.410       .  A
C1126      H1137   1.083       .  S
C1127      C1136   1.370       .  A
C1127      C1128   1.380       .  A
C1128      C1129   1.399       .  A
C1128      O1134   1.316       .  A
C1129      C1130   1.399       .  A
C1129      H1138   1.083       .  S
C1130      C1133   1.356       .  A
O1131      C1132   1.335       .  A
C1132      C1133   1.389       .  A
C1133      H1139   1.083       .  S
O1134      C1135   1.329       .  A
C1135      C1136   1.394       .  A
C1136      H1140   1.082       .  S
C1141      C1146   1.380       .  A
C1141      C1142   1.403       .  A
C1141      O1147   1.319       .  A
C1142      C1143   1.403       .  A
C1142      H1153   1.082       .  S
C1143      C1152   1.362       .  A
C1143      C1144   1.380       .  A
C1144      C1145   1.405       .  A
C1144      O1150   1.321       .  A
C1145      C1146   1.405       .  A
C1145      H1154   1.082       .  S
C1146      C1149   1.364       .  A
O1147      C1148   1.331       .  A
C1148      C1149   1.392       .  A
C1149      H1155   1.082       .  S
O1150      C1151   1.332       .  A
C1151      C1152   1.391       .  A
C1152      H1156   1.082       .  S
C1157      C1162   1.381       .  A
C1157      C1158   1.403       .  A
C1157      O1163   1.320       .  A
C1158      C1159   1.403       .  A
C1158      H1169   1.082       .  S
C1159      C1168   1.360       .  A
C1159      C1160   1.381       .  A
C1160      C1161   1.402       .  A
C1160      O1166   1.319       .  A
C1161      C1162   1.402       .  A
C1161      H1170   1.082       .  S
C1162      C1165   1.359       .  A
O1163      C1164   1.330       .  A
C1164      C1165   1.391       .  A
C1165      H1171   1.082       .  S
O1166      C1167   1.330       .  A
C1167      C1168   1.391       .  A
C1168      H1172   1.082       .  S
C1173      C1178   1.380       .  A
C1173      C1174   1.411       .  A
C1173      O1179   1.326       .  A
C1174      C1175   1.410       .  A
C1174      H1185   1.082       .  S
C1175      C1184   1.372       .  A
C1175      C1176   1.381       .  A
C1176      C1177   1.396       .  A
C1176      O1182   1.311       .  A
C1177      C1178   1.395       .  A
C1177      H1186   1.083       .  S
C1178      C1181   1.353       .  A
O1179      C1180   1.334       .  A
C1180      C1181   1.388       .  A
C1181      H1187   1.083       .  S
O1182      C1183   1.327       .  A
C1183      C1184   1.395       .  A
C1184      H1188   1.082       .  S
C1189      C1194   1.380       .  A
C1189      C1190   1.400       .  A
C1189      O1195   1.316       .  A
C1190      C1191   1.400       .  A
C1190      H1201   1.082       .  S
C1191      C1200   1.357       .  A
C1191      C1192   1.380       .  A
C1192      C1193   1.409       .  A
C1192      O1198   1.324       .  A
C1193      C1194   1.408       .  A
C1193      H1202   1.082       .  S
C1194      C1197   1.369       .  A
O1195      C1196   1.329       .  A
C1196      C1197   1.394       .  A
C1197      H1203   1.082       .  S
O1198      C1199   1.334       .  A
C1199      C1200   1.390       .  A
C1200      H1204   1.083       .  S
C1205      C1210   1.380   1_565  A
C1205      C1206   1.406       .  A
C1205      O1211   1.320       .  A
C1206      C1207   1.405       .  A
C1206      H1217   1.082       .  S
C1207      C1216   1.365       .  A
C1207      C1208   1.380   1_565  A
C1208      C1209   1.404       .  A
C1208      O1214   1.319       .  A
C1209      C1210   1.402       .  A
C1209      H1218   1.082       .  S
C1210      C1213   1.362   1_545  A
O1211      C1212   1.332       .  A
C1212      C1213   1.390       .  A
C1213      H1219   1.082   1_565  S
O1214      C1215   1.331       .  A
C1215      C1216   1.392   1_545  A
C1216      H1220   1.082       .  S
C1221      C1226   1.380   1_545  A
C1221      C1222   1.407   1_554  A
C1221      O1227   1.322       .  A
C1222      C1223   1.407       .  A
C1222      H1233   1.082       .  S
C1223      C1232   1.367       .  A
C1223      C1224   1.380   1_545  A
C1224      C1225   1.404   1_556  A
C1224      O1230   1.320       .  A
C1225      C1226   1.403       .  A
C1225      H1234   1.082       .  S
C1226      C1229   1.363       .  A
O1227      C1228   1.333       .  A
C1228      C1229   1.391   1_545  A
C1229      H1235   1.082       .  S
O1230      C1231   1.331       .  A
C1231      C1232   1.394   1_565  A
C1232      H1236   1.082       .  S
C1237      C1242   1.381       .  A
C1237      C1238   1.395       .  A
C1237      O1243   1.311       .  A
C1238      C1239   1.394       .  A
C1238      H1249   1.083       .  S
C1239      C1248   1.351       .  A
C1239      C1240   1.380       .  A
C1240      C1241   1.410       .  A
C1240      O1246   1.325       .  A
C1241      C1242   1.410       .  A
C1241      H1250   1.082       .  S
C1242      C1245   1.371       .  A
O1243      C1244   1.326       .  A
C1244      C1245   1.395       .  A
C1245      H1251   1.082       .  S
O1246      C1247   1.334       .  A
C1247      C1248   1.387       .  A
C1248      H1252   1.083       .  S
C1253      C1258   1.381       .  A
C1253      C1254   1.399       .  A
C1253      O1259   1.315       .  A
C1254      C1255   1.398       .  A
C1254      H1265   1.083       .  S
C1255      C1264   1.356       .  A
C1255      C1256   1.380       .  A
C1256      C1257   1.407       .  A
C1256      O1262   1.323       .  A
C1257      C1258   1.407       .  A
C1257      H1266   1.082       .  S
C1258      C1261   1.367       .  A
O1259      C1260   1.329       .  A
C1260      C1261   1.393       .  A
C1261      H1267   1.082       .  S
O1262      C1263   1.332       .  A
C1263      C1264   1.389       .  A
C1264      H1268   1.083       .  S
C1269      C1274   1.381       .  A
C1269      C1270   1.396       .  A
C1269      O1275   1.312       .  A
C1270      C1271   1.395       .  A
C1270      H1281   1.083       .  S
C1271      C1280   1.353       .  A
C1271      C1272   1.380       .  A
C1272      C1273   1.412       .  A
C1272      O1278   1.326       .  A
C1273      C1274   1.412       .  A
C1273      H1282   1.082       .  S
C1274      C1277   1.373       .  A
O1275      C1276   1.327       .  A
C1276      C1277   1.396       .  A
C1277      H1283   1.082       .  S
O1278      C1279   1.335       .  A
C1279      C1280   1.387       .  A
C1280      H1284   1.083       .  S
C1285      C1290   1.380       .  A
C1285      C1286   1.405       .  A
C1285      O1291   1.321       .  A
C1286      C1287   1.404       .  A
C1286      H1297   1.082       .  S
C1287      C1296   1.363       .  A
C1287      C1288   1.380       .  A
C1288      C1289   1.408       .  A
C1288      O1294   1.324       .  A
C1289      C1290   1.408       .  A
C1289      H1298   1.082       .  S
C1290      C1293   1.366       .  A
O1291      C1292   1.332       .  A
C1292      C1293   1.394       .  A
C1293      H1299   1.082       .  S
O1294      C1295   1.334       .  A
C1295      C1296   1.392       .  A
C1296      H1300   1.082       .  S
C1301      C1306   1.380       .  A
C1301      C1302   1.406       .  A
C1301      O1307   1.323       .  A
C1302      C1303   1.406       .  A
C1302      H1313   1.082       .  S
C1303      C1312   1.362       .  A
C1303      C1304   1.381       .  A
C1304      C1305   1.402       .  A
C1304      O1310   1.320       .  A
C1305      C1306   1.402       .  A
C1305      H1314   1.082       .  S
C1306      C1309   1.359       .  A
O1307      C1308   1.332       .  A
C1308      C1309   1.390       .  A
C1309      H1315   1.082       .  S
O1310      C1311   1.330       .  A
C1311      C1312   1.393       .  A
C1312      H1316   1.082       .  S
C1317      C1322   1.380       .  A
C1317      C1318   1.409       .  A
C1317      O1323   1.325       .  A
C1318      C1319   1.409       .  A
C1318      H1329   1.082       .  S
C1319      C1328   1.369       .  A
C1319      C1320   1.381       .  A
C1320      C1321   1.397       .  A
C1320      O1326   1.314       .  A
C1321      C1322   1.396       .  A
C1321      H1330   1.083       .  S
C1322      C1325   1.352       .  A
O1323      C1324   1.334       .  A
C1324      C1325   1.388       .  A
C1325      H1331   1.083       .  S
O1326      C1327   1.328       .  A
C1327      C1328   1.394       .  A
C1328      H1332   1.082       .  S
C1333      C1338   1.381       .  A
C1333      C1334   1.401       .  A
C1333      O1339   1.318       .  A
C1334      C1335   1.401       .  A
C1334      H1345   1.082       .  S
C1335      C1344   1.358       .  A
C1335      C1336   1.381       .  A
C1336      C1337   1.402       .  A
C1336      O1342   1.319       .  A
C1337      C1338   1.402       .  A
C1337      H1346   1.082       .  S
C1338      C1341   1.360       .  A
O1339      C1340   1.329       .  A
C1340      C1341   1.391       .  A
C1341      H1347   1.082       .  S
O1342      C1343   1.330       .  A
C1343      C1344   1.390       .  A
C1344      H1348   1.082       .  S
C1349      C1354   1.380       .  A
C1349      C1350   1.406       .  A
C1349      O1355   1.321       .  A
C1350      C1351   1.405       .  A
C1350      H1361   1.082       .  S
C1351      C1360   1.364       .  A
C1351      C1352   1.381       .  A
C1352      C1353   1.402       .  A
C1352      O1358   1.317       .  A
C1353      C1354   1.401       .  A
C1353      H1362   1.082       .  S
C1354      C1357   1.360       .  A
O1355      C1356   1.332       .  A
C1356      C1357   1.390       .  A
C1357      H1363   1.082       .  S
O1358      C1359   1.329       .  A
C1359      C1360   1.392       .  A
C1360      H1364   1.082       .  S
C1365      C1370   1.380       .  A
C1365      C1366   1.411   1_545  A
C1365      O1371   1.326       .  A
C1366      C1367   1.410   1_556  A
C1366      H1377   1.082       .  S
C1367      C1376   1.370       .  A
C1367      C1368   1.380       .  A
C1368      C1369   1.400   1_554  A
C1368      O1374   1.316       .  A
C1369      C1370   1.399   1_565  A
C1369      H1378   1.083       .  S
C1370      C1373   1.357       .  A
O1371      C1372   1.335       .  A
C1372      C1373   1.389       .  A
C1373      H1379   1.083       .  S
O1374      C1375   1.329       .  A
C1375      C1376   1.395       .  A
C1376      H1380   1.082       .  S
C1381      C1386   1.380       .  A
C1381      C1382   1.410       .  A
C1381      O1387   1.325       .  A
C1382      C1383   1.410       .  A
C1382      H1393   1.082       .  S
C1383      C1392   1.371       .  A
C1383      C1384   1.381       .  A
C1384      C1385   1.396       .  A
C1384      O1390   1.312       .  A
C1385      C1386   1.395       .  A
C1385      H1394   1.083       .  S
C1386      C1389   1.352       .  A
O1387      C1388   1.334       .  A
C1388      C1389   1.388       .  A
C1389      H1395   1.083       .  S
O1390      C1391   1.327       .  A
C1391      C1392   1.395       .  A
C1392      H1396   1.082       .  S
C1397      C1402   1.380       .  A
C1397      C1398   1.397       .  A
C1397      O1403   1.313       .  A
C1398      C1399   1.396       .  A
C1398      H1409   1.083       .  S
C1399      C1408   1.354       .  A
C1399      C1400   1.379       .  A
C1400      C1401   1.413       .  A
C1400      O1406   1.328       .  A
C1401      C1402   1.413       .  A
C1401      H1410   1.082       .  S
C1402      C1405   1.374       .  A
O1403      C1404   1.327       .  A
C1404      C1405   1.397       .  A
C1405      H1411   1.082       .  S
O1406      C1407   1.336       .  A
C1407      C1408   1.389       .  A
C1408      H1412   1.083       .  S
C1413      C1418   1.380       .  A
C1413      C1414   1.398   1_545  A
C1413      O1419   1.313       .  A
C1414      C1415   1.397   1_556  A
C1414      H1425   1.084       .  S
C1415      C1424   1.355       .  A
C1415      C1416   1.380       .  A
C1416      C1417   1.412   1_554  A
C1416      O1422   1.326       .  A
C1417      C1418   1.411   1_565  A
C1417      H1426   1.083       .  S
C1418      C1421   1.372       .  A
O1419      C1420   1.328       .  A
C1420      C1421   1.396       .  A
C1421      H1427   1.082       .  S
O1422      C1423   1.336       .  A
C1423      C1424   1.388       .  A
C1424      H1428   1.083       .  S
C1429      C1434   1.380       .  A
C1429      C1430   1.396       .  A
C1429      O1435   1.312       .  A
C1430      C1431   1.395       .  A
C1430      H1441   1.083       .  S
C1431      C1440   1.351       .  A
C1431      C1432   1.380       .  A
C1432      C1433   1.413       .  A
C1432      O1438   1.328       .  A
C1433      C1434   1.412       .  A
C1433      H1442   1.082       .  S
C1434      C1437   1.374       .  A
O1435      C1436   1.327       .  A
C1436      C1437   1.396       .  A
C1437      H1443   1.082       .  S
O1438      C1439   1.336       .  A
C1439      C1440   1.387       .  A
C1440      H1444   1.083       .  S
C1445      C1450   1.380       .  A
C1445      C1446   1.406       .  A
C1445      O1451   1.322       .  A
C1446      C1447   1.405       .  A
C1446      H1457   1.082       .  S
C1447      C1456   1.365       .  A
C1447      C1448   1.380       .  A
C1448      C1449   1.407       .  A
C1448      O1454   1.322       .  A
C1449      C1450   1.406       .  A
C1449      H1458   1.082       .  S
C1450      C1453   1.366       .  A
O1451      C1452   1.333       .  A
C1452      C1453   1.393       .  A
C1453      H1459   1.082       .  S
O1454      C1455   1.332       .  A
C1455      C1456   1.393       .  A
C1456      H1460   1.082       .  S
C1461      C1466   1.381       .  A
C1461      C1462   1.403       .  A
C1461      O1467   1.320       .  A
C1462      C1463   1.403       .  A
C1462      H1473   1.082       .  S
C1463      C1472   1.360       .  A
C1463      C1464   1.381       .  A
C1464      C1465   1.403       .  A
C1464      O1470   1.320       .  A
C1465      C1466   1.403       .  A
C1465      H1474   1.082       .  S
C1466      C1469   1.361       .  A
O1467      C1468   1.330       .  A
C1468      C1469   1.391       .  A
C1469      H1475   1.082       .  S
O1470      C1471   1.330       .  A
C1471      C1472   1.391       .  A
C1472      H1476   1.082       .  S
C1477      C1482   1.380       .  A
C1477      C1478   1.410       .  A
C1477      O1483   1.326       .  A
C1478      C1479   1.410       .  A
C1478      H1489   1.082       .  S
C1479      C1488   1.371       .  A
C1479      C1480   1.381       .  A
C1480      C1481   1.397       .  A
C1480      O1486   1.313       .  A
C1481      C1482   1.397       .  A
C1481      H1490   1.083       .  S
C1482      C1485   1.355       .  A
O1483      C1484   1.334       .  A
C1484      C1485   1.389       .  A
C1485      H1491   1.083       .  S
O1486      C1487   1.328       .  A
C1487      C1488   1.394       .  A
C1488      H1492   1.082       .  S
C1493      C1498   1.380       .  A
C1493      C1494   1.410       .  A
C1493      O1499   1.326       .  A
C1494      C1495   1.409       .  A
C1494      H1505   1.083       .  S
C1495      C1504   1.369       .  A
C1495      C1496   1.380       .  A
C1496      C1497   1.402       .  A
C1496      O1502   1.318       .  A
C1497      C1498   1.401       .  A
C1497      H1506   1.084       .  S
C1498      C1501   1.359       .  A
O1499      C1500   1.334       .  A
C1500      C1501   1.391       .  A
C1501      H1507   1.084       .  S
O1502      C1503   1.331       .  A
C1503      C1504   1.395       .  A
C1504      H1508   1.083       .  S
C1509      C1514   1.381       .  A
C1509      C1510   1.395       .  A
C1509      O1515   1.312       .  A
C1510      C1511   1.394       .  A
C1510      H1521   1.083       .  S
C1511      C1520   1.350       .  A
C1511      C1512   1.380       .  A
C1512      C1513   1.412       .  A
C1512      O1518   1.328       .  A
C1513      C1514   1.412       .  A
C1513      H1522   1.082       .  S
C1514      C1517   1.372       .  A
O1515      C1516   1.326       .  A
C1516      C1517   1.396       .  A
C1517      H1523   1.082       .  S
O1518      C1519   1.336       .  A
C1519      C1520   1.386       .  A
C1520      H1524   1.083       .  S
C1525      C1530   1.380       .  A
C1525      C1526   1.406   1_565  A
C1525      O1531   1.323       .  A
C1526      C1527   1.406       .  A
C1526      H1537   1.081       .  S
C1527      C1536   1.364       .  A
C1527      C1528   1.381   1_545  A
C1528      C1529   1.402       .  A
C1528      O1534   1.319       .  A
C1529      C1530   1.402       .  A
C1529      H1538   1.081       .  S
C1530      C1533   1.359       .  A
O1531      C1532   1.332       .  A
C1532      C1533   1.391       .  A
C1533      H1539   1.082       .  S
O1534      C1535   1.329   1_565  A
C1535      C1536   1.394       .  A
C1536      H1540   1.082       .  S
C1541      C1546   1.380   1_545  A
C1541      C1542   1.408   1_554  A
C1541      O1547   1.323       .  A
C1542      C1543   1.407   1_545  A
C1542      H1553   1.082       .  S
C1543      C1552   1.367       .  A
C1543      C1544   1.380       .  A
C1544      C1545   1.406   1_556  A
C1544      O1550   1.321       .  A
C1545      C1546   1.405       .  A
C1545      H1554   1.082       .  S
C1546      C1549   1.364       .  A
O1547      C1548   1.334       .  A
C1548      C1549   1.392   1_545  A
C1549      H1555   1.082       .  S
O1550      C1551   1.332       .  A
C1551      C1552   1.394       .  A
C1552      H1556   1.082   1_565  S
C1557      C1562   1.381       .  A
C1557      C1558   1.394       .  A
C1557      O1563   1.311       .  A
C1558      C1559   1.393       .  A
C1558      H1569   1.083       .  S
C1559      C1568   1.349       .  A
C1559      C1560   1.380       .  A
C1560      C1561   1.412       .  A
C1560      O1566   1.327       .  A
C1561      C1562   1.412       .  A
C1561      H1570   1.082       .  S
C1562      C1565   1.373       .  A
O1563      C1564   1.326       .  A
C1564      C1565   1.396       .  A
C1565      H1571   1.082       .  S
O1566      C1567   1.335       .  A
C1567      C1568   1.385       .  A
C1568      H1572   1.083       .  S
C1573      C1578   1.381       .  A
C1573      C1574   1.398       .  A
C1573      O1579   1.315       .  A
C1574      C1575   1.397       .  A
C1574      H1585   1.084       .  S
C1575      C1584   1.354       .  A
C1575      C1576   1.380       .  A
C1576      C1577   1.408       .  A
C1576      O1582   1.324       .  A
C1577      C1578   1.408       .  A
C1577      H1586   1.083       .  S
C1578      C1581   1.368       .  A
O1579      C1580   1.328       .  A
C1580      C1581   1.394       .  A
C1581      H1587   1.083       .  S
O1582      C1583   1.333       .  A
C1583      C1584   1.388       .  A
C1584      H1588   1.084       .  S
C1589      C1594   1.380       .  A
C1589      C1590   1.405       .  A
C1589      O1595   1.318       .  A
C1590      C1591   1.403       .  A
C1590      H1601   1.082       .  S
C1591      C1600   1.364       .  A
C1591      C1592   1.380       .  A
C1592      C1593   1.404       .  A
C1592      O1598   1.318       .  A
C1593      C1594   1.403       .  A
C1593      H1602   1.082       .  S
C1594      C1597   1.364       .  A
O1595      C1596   1.331       .  A
C1596      C1597   1.391       .  A
C1597      H1603   1.082       .  S
O1598      C1599   1.331       .  A
C1599      C1600   1.391       .  A
C1600      H1604   1.082       .  S
C1605      C1610   1.380       .  A
C1605      C1606   1.405       .  A
C1605      O1611   1.321       .  A
C1606      C1607   1.405       .  A
C1606      H1617   1.082       .  S
C1607      C1616   1.365       .  A
C1607      C1608   1.380       .  A
C1608      C1609   1.406       .  A
C1608      O1614   1.321       .  A
C1609      C1610   1.405       .  A
C1609      H1618   1.082       .  S
C1610      C1613   1.365       .  A
O1611      C1612   1.332       .  A
C1612      C1613   1.393       .  A
C1613      H1619   1.082       .  S
O1614      C1615   1.332       .  A
C1615      C1616   1.392       .  A
C1616      H1620   1.082       .  S
