geometry optimzed in LAMMPS
_audit_creation_date              2020-12-01 
_audit_creation_method            'lammps2cif' 
_symmetry_space_group_name_H-M    'P1' 
_symmetry_Int_Tables_number       1 
_symmetry_cell_setting            triclinic 
loop_ 
_symmetry_equiv_pos_as_xyz 
  x,y,z 
_cell_length_a                    29.96515061 
_cell_length_b                    29.975951855953138 
_cell_length_c                    85.6833715467277 
_cell_angle_alpha                 90.06160250354856 
_cell_angle_beta                  90.62533656843175 
_cell_angle_gamma                 119.99997343116854 
loop_ 
_atom_site_label 
_atom_site_type_symbol 
_atom_site_fract_x 
_atom_site_fract_y 
_atom_site_fract_z 
_atom_site_charge 
O1          O  0.65912212  0.46959050  0.08625225    -0.70100
O2          O  0.78120038  0.46181075  0.07955989    -0.70300
O3          O  0.71680898  0.44129833  0.10350930    -0.70200
O4          O  0.72298904  0.48832350  0.06227628    -0.70200
O5          O  0.76839386  0.56774340  0.07009667    -0.70100
O6          O  0.76531550  0.51967208  0.11176383    -0.70100
O7          O  0.82702242  0.54181903  0.08693954    -0.70100
O8          O  0.70651052  0.54768688  0.09490592    -0.70300
V9          V  0.72080290  0.46675220  0.08309099     1.35200
V10         V  0.76572493  0.54265367  0.09083235     1.35200
C11         C  0.66224746  0.51055068  0.09161252     0.79200
C12         C  0.82501765  0.50151436  0.08174229     0.79200
C13         C  0.74098203  0.47173784  0.11465650     0.79100
C14         C  0.74724127  0.53561938  0.05898380     0.79100
O15         O  0.80332142  0.49214392  0.91518699    -0.70100
O16         O  0.67459564  0.48585613  0.92207005    -0.70300
O17         O  0.71830018  0.46790712  0.89757729    -0.70200
O18         O  0.75811052  0.50845012  0.93958842    -0.70200
O19         O  0.79264597  0.58904800  0.93326747    -0.70100
O20         O  0.75053866  0.54758562  0.89072289    -0.70100
O21         O  0.70991936  0.56677798  0.91591844    -0.70100
O22         O  0.83615591  0.57183469  0.90822347    -0.70300
V23         V  0.73936703  0.49013367  0.91842218     1.35200
V24         V  0.77188157  0.56722709  0.91207892     1.35200
C25         C  0.84225420  0.53379053  0.91091327     0.79200
C26         C  0.67118176  0.52603346  0.92048300     0.79200
C27         C  0.72542400  0.50011040  0.88702172     0.79100
C28         C  0.78088420  0.55520251  0.94373320     0.79100
O29         O  0.34906500  0.59454408  0.09067979    -0.70100
O30         O  0.22091182  0.59188186  0.08483364    -0.70300
O31         O  0.28594477  0.60988137  0.10922317    -0.70200
O32         O  0.28523894  0.57854404  0.06646016    -0.70200
O33         O  0.24616776  0.49676200  0.07145970    -0.70100
O34         O  0.24114923  0.52856273  0.11470435    -0.70100
O35         O  0.18056728  0.50952263  0.08909158    -0.70100
O36         O  0.30678620  0.51380079  0.09695240    -0.70300
V37         V  0.28446033  0.59215557  0.08794974     1.35200
V38         V  0.24455748  0.51375057  0.09300991     1.35200
C39         C  0.34951466  0.55411695  0.09476444     0.79200
C40         C  0.17890984  0.54932290  0.08536087     0.79200
C41         C  0.26365998  0.57520222  0.11930636     0.79100
C42         C  0.26579768  0.53279843  0.06153687     0.79100
O43         O  0.24042203  0.61952112  0.91845503    -0.70100
O44         O  0.36584009  0.61703469  0.92530801    -0.70300
O45         O  0.32531917  0.64410488  0.90144492    -0.70200
O46         O  0.28255937  0.59477557  0.94228268    -0.70200
O47         O  0.24625588  0.51563446  0.93399625    -0.70100
O48         O  0.28859729  0.56598188  0.89242927    -0.70100
O49         O  0.32754493  0.53845269  0.91645960    -0.70100
O50         O  0.20459184  0.54089945  0.90986796    -0.70300
V51         V  0.30278048  0.61741023  0.92165878     1.35200
V52         V  0.26731410  0.54185507  0.91330169     1.35200
C53         C  0.20058715  0.57969442  0.91323882     0.79200
C54         C  0.36710293  0.57620894  0.92233132     0.79200
C55         C  0.31552669  0.61408657  0.88995408     0.79100
C56         C  0.25837274  0.54727603  0.94527516     0.79100
O57         O  0.58746668  0.27407629  0.75214565    -0.70100
O58         O  0.58961676  0.40078097  0.74416901    -0.70300
O59         O  0.61086240  0.35981867  0.76894620    -0.70200
O60         O  0.56828982  0.31642795  0.72735036    -0.70200
O61         O  0.48789553  0.27886077  0.73396353    -0.70100
O62         O  0.53147673  0.32788698  0.77595458    -0.70100
O63         O  0.50852188  0.36335882  0.75007501    -0.70100
O64         O  0.50856628  0.24081536  0.75983760    -0.70300
V65         V  0.58753098  0.33701579  0.74831081     1.35200
V66         V  0.51069045  0.30325258  0.75488817     1.35200
C67         C  0.54691841  0.23538826  0.75718273     0.79200
C68         C  0.54862290  0.40289443  0.74556283     0.79200
C69         C  0.57917055  0.35332093  0.77950714     0.79100
C70         C  0.52133578  0.29072451  0.72342052     0.79100
O71         O  0.60864457  0.40480955  0.58167797    -0.70100
O72         O  0.60246302  0.27601817  0.58837127    -0.70300
O73         O  0.63016113  0.34228105  0.56455246    -0.70200
O74         O  0.58229760  0.33862688  0.60540753    -0.70200
O75         O  0.50301097  0.29879610  0.59702061    -0.70100
O76         O  0.55166365  0.30098415  0.55566926    -0.70100
O77         O  0.52296516  0.23640363  0.58010187    -0.70100
O78         O  0.53021336  0.36407906  0.57267646    -0.70300
V79         V  0.60437963  0.33975460  0.58478544     1.35200
V80         V  0.52853857  0.30104296  0.57646142     1.35200
C81         C  0.56984519  0.40627982  0.57630351     0.79200
C82         C  0.56088549  0.23425873  0.58574039     0.79200
C83         C  0.59959002  0.32127577  0.55314135     0.79100
C84         C  0.53483834  0.31734128  0.60834026     0.79100
O85         O  0.46190476  0.83851858  0.75497726    -0.70100
O86         O  0.46008552  0.71120942  0.74861293    -0.70300
O87         O  0.43492283  0.75336584  0.77228956    -0.70200
O88         O  0.48552244  0.79523937  0.73139565    -0.70200
O89         O  0.56428995  0.82971130  0.74005228    -0.70100
O90         O  0.51299985  0.78812434  0.78142020    -0.70100
O91         O  0.53874389  0.74727136  0.75754672    -0.70100
O92         O  0.54025439  0.87254542  0.76383802    -0.70300
V93         V  0.46204481  0.77529200  0.75204013     1.35200
V94         V  0.53743752  0.80881569  0.76060827     1.35200
C95         C  0.50221858  0.87778446  0.76019050     0.79200
C96         C  0.50019026  0.70851751  0.75159495     0.79200
C97         C  0.46487165  0.76258472  0.78386147     0.79100
C98         C  0.53321417  0.81856510  0.72861152     0.79100
O99         O  0.49052807  0.71892432  0.58507036    -0.70100
O100        O  0.48141360  0.83995235  0.59210983    -0.70300
O101        O  0.46298379  0.77694849  0.56772275    -0.70200
O102        O  0.50706502  0.78147166  0.60947688    -0.70200
O103        O  0.58706749  0.82906942  0.60290098    -0.70100
O104        O  0.54203421  0.82464670  0.56037923    -0.70100
O105        O  0.56156320  0.88659091  0.58540506    -0.70100
O106        O  0.56978084  0.76682997  0.57793306    -0.70300
V107        V  0.48708176  0.78013243  0.58842441     1.35200
V108        V  0.56357259  0.82567966  0.58172533     1.35200
C109        C  0.53230493  0.72243869  0.58053606     0.79200
C110        C  0.52067127  0.88392790  0.59015202     0.79200
C111        C  0.49419102  0.80113426  0.55695639     0.79100
C112        C  0.55398765  0.80661506  0.61348915     0.79100
O113        O  0.35485171  0.81585692  0.25314432    -0.70100
O114        O  0.23084785  0.68865533  0.26056360    -0.70300
O115        O  0.29694919  0.72686795  0.23677287    -0.70200
O116        O  0.28914071  0.77611809  0.27685966    -0.70200
O117        O  0.24514952  0.80958354  0.26723360    -0.70100
O118        O  0.25032947  0.75675928  0.22692437    -0.70100
O119        O  0.18704532  0.72272982  0.25130355    -0.70100
O120        O  0.30943097  0.84640435  0.24273283    -0.70300
V121        V  0.29227054  0.75260331  0.25659542     1.35200
V122        V  0.24913537  0.78343222  0.24718084     1.35200
C123        C  0.35291973  0.85328867  0.24695537     0.79200
C124        C  0.18762147  0.68485757  0.25744564     0.79200
C125        C  0.27326326  0.73119098  0.22509651     0.79100
C126        C  0.26516608  0.80021235  0.27897727     0.79100
O127        O  0.26160087  0.71257304  0.42133388    -0.70100
O128        O  0.38811650  0.83843883  0.41446033    -0.70300
O129        O  0.34772536  0.77329716  0.43863475    -0.70200
O130        O  0.30356404  0.77704429  0.39730697    -0.70200
O131        O  0.26649742  0.81932322  0.40509895    -0.70100
O132        O  0.31507701  0.81915122  0.44679045    -0.70100
O133        O  0.35078064  0.88109161  0.42176582    -0.70100
O134        O  0.22832206  0.75730437  0.42998882    -0.70300
V135        V  0.32457861  0.77609483  0.41814842     1.35200
V136        V  0.29077429  0.81817533  0.42584217     1.35200
C137        C  0.22264135  0.71391759  0.42641059     0.79200
C138        C  0.38984913  0.88121833  0.41646457     0.79200
C139        C  0.34051508  0.79656305  0.44976539     0.79100
C140        C  0.27796676  0.79888748  0.39401769     0.79100
O141        O  0.66364664  0.25129219  0.24979026    -0.70100
O142        O  0.79170328  0.37644629  0.25651361    -0.70300
O143        O  0.72368178  0.33593484  0.23262280    -0.70200
O144        O  0.73139516  0.29347298  0.27363516    -0.70200
O145        O  0.77921823  0.26277080  0.26557039    -0.70100
O146        O  0.75956927  0.29405576  0.22361703    -0.70100
O147        O  0.83128777  0.34027563  0.24587554    -0.70100
O148        O  0.70669047  0.21406872  0.24305544    -0.70300
V149        V  0.72820266  0.31353315  0.25294107     1.35200
V150        V  0.76811912  0.27820729  0.24468216     1.35200
C151        C  0.66372914  0.21065862  0.24565724     0.79200
C152        C  0.83330993  0.37935083  0.25206820     0.79200
C153        C  0.74055497  0.32290611  0.22106876     0.79100
C154        C  0.75883495  0.27354936  0.27677516     0.79100
O155        O  0.82435751  0.40419119  0.41863931    -0.70100
O156        O  0.69608311  0.27925098  0.41224268    -0.70300
O157        O  0.74060899  0.34549809  0.43623419    -0.70200
O158        O  0.77838309  0.33848971  0.39478878    -0.70200
O159        O  0.81570150  0.29587038  0.40230990    -0.70100
O160        O  0.77323414  0.29914807  0.44416176    -0.70100
O161        O  0.73339781  0.23609407  0.41925234    -0.70100
O162        O  0.85814796  0.35945637  0.42723325    -0.70300
V163        V  0.76063526  0.34114855  0.41568489     1.35200
V164        V  0.79460826  0.29871486  0.42315384     1.35200
C165        C  0.86341933  0.40278379  0.42385152     0.79200
C166        C  0.69383999  0.23625353  0.41419094     0.79200
C167        C  0.74862764  0.32234289  0.44724852     0.79100
C168        C  0.80240966  0.31534847  0.39133130     0.79100
C169        C  0.83076154  0.28802660  0.31468689     0.14400
C170        C  0.79161786  0.27544500  0.32557768     0.01300
C171        C  0.74069765  0.25608960  0.32027625     0.16300
C172        C  0.72941272  0.25204090  0.30428182     0.25700
C173        C  0.76884001  0.26679120  0.29329808    -0.40600
C174        C  0.81941342  0.28338755  0.29862555     0.32800
C175        C  0.80408317  0.28871712  0.34229292     0.01400
F176        F  0.70235655  0.24388016  0.33063726    -0.12900
F177        F  0.85852893  0.29945386  0.28832888    -0.13400
C178        C  0.81140504  0.33601303  0.34780354     0.16300
C179        C  0.81488819  0.34622903  0.36381705     0.25700
C180        C  0.81107688  0.30921471  0.37466204    -0.40600
C181        C  0.80717978  0.26314940  0.36908012     0.32700
C182        C  0.80336721  0.25286322  0.35297156     0.14400
F183        F  0.81239463  0.37124860  0.33764890    -0.12900
F184        F  0.80288392  0.22641251  0.37919139    -0.13400
F185        F  0.81980244  0.39157893  0.36874556    -0.15700
F186        F  0.79610982  0.20682876  0.34783118    -0.14300
F187        F  0.88034740  0.30773934  0.31960691    -0.14300
F188        F  0.68022466  0.23572770  0.29950686    -0.15700
C189        C  0.46991691  0.01784024  0.40254385     0.14400
C190        C  0.51853684  0.03197593  0.40900906     0.01300
C191        C  0.52551816  0.99438778  0.41679437     0.16300
C192        C  0.48433778  0.94405147  0.41840123     0.25700
C193        C  0.43532213  0.93092431  0.41263152    -0.40600
C194        C  0.42855536  0.96794680  0.40450768     0.32800
C195        C  0.56152514  0.08609256  0.40824080     0.01400
F196        F  0.57158198  0.00709083  0.42356619    -0.12900
F197        F  0.38154593  0.95579094  0.39858103    -0.13400
C198        C  0.55556261  0.12709130  0.41383045     0.16300
C199        C  0.59803525  0.17715670  0.41484463     0.25700
C200        C  0.64712334  0.18658826  0.41063416    -0.40600
C201        C  0.65239847  0.14625080  0.40422082     0.32700
C202        C  0.60993427  0.09668945  0.40286361     0.14400
F203        F  0.50936365  0.11820749  0.41918180    -0.12900
F204        F  0.69909139  0.15469950  0.39947642    -0.13400
F205        F  0.59183825  0.21551382  0.42093475    -0.15700
F206        F  0.61634515  0.05867776  0.39658503    -0.14300
F207        F  0.46234702  0.05244781  0.39443155    -0.14300
F208        F  0.49153594  0.90918343  0.42648897    -0.15700
C209        C  0.07728092  0.62949460  0.42937420     0.14400
C210        C  0.06982548  0.57990024  0.42706239     0.01300
C211        C  0.11322444  0.57393117  0.42524609     0.16300
C212        C  0.16315582  0.61707591  0.42539433     0.25700
C213        C  0.17060596  0.66704464  0.42742734    -0.40600
C214        C  0.12681305  0.67245101  0.42955114     0.32800
C215        C  0.01661511  0.53484738  0.42642374     0.01400
F216        F  0.10716814  0.52640812  0.42288315    -0.12900
F217        F  0.13141826  0.71958249  0.43138607    -0.13400
C218        C  0.98027214  0.53312935  0.41551566     0.16300
C219        C  0.92981787  0.49122713  0.41507587     0.25700
C220        C  0.91484921  0.44983121  0.42541210    -0.40600
C221        C  0.95117614  0.45185003  0.43641213     0.32700
C222        C  0.00141565  0.49402131  0.43695182     0.14400
F223        F  0.99411189  0.57146661  0.40496322    -0.12900
F224        F  0.93795323  0.41308925  0.44676818    -0.13400
F225        F  0.89636412  0.49012638  0.40405684    -0.15700
F226        F  0.03508203  0.49532847  0.44792888    -0.14300
F227        F  0.03630479  0.63644214  0.43149776    -0.14300
F228        F  0.20399681  0.60985281  0.42341405    -0.15700
C229        C  0.48261102  0.97221290  0.25538652     0.14400
C230        C  0.48323546  0.00689330  0.24426588     0.01300
C231        C  0.44231163  0.99020722  0.23350361     0.16300
C232        C  0.40073865  0.93968150  0.23402283     0.25700
C233        C  0.39948345  0.90486809  0.24532847    -0.40600
C234        C  0.44114076  0.92163940  0.25593455     0.32800
C235        C  0.52770739  0.05990363  0.24360692     0.01400
F236        F  0.44286469  0.02281428  0.22242042    -0.12900
F237        F  0.44076979  0.88987108  0.26727695    -0.13400
C238        C  0.57428040  0.06817006  0.23745226     0.16300
C239        C  0.61769451  0.11738711  0.23762791     0.25700
C240        C  0.61567641  0.15966298  0.24416512    -0.40600
C241        C  0.56817909  0.15146173  0.24987532     0.32700
C242        C  0.52453807  0.10191697  0.24955981     0.14400
F243        F  0.57779491  0.02820275  0.23136894    -0.12900
F244        F  0.56419578  0.19085991  0.25619024    -0.13400
F245        F  0.66189644  0.12326235  0.23149242    -0.15700
F246        F  0.47955825  0.09460025  0.25549700    -0.14300
F247        F  0.52183912  0.98780314  0.26593478    -0.14300
F248        F  0.36178878  0.92478217  0.22340571    -0.15700
C249        C  0.08220624  0.54512393  0.25879573     0.14400
C250        C  0.03874822  0.55061136  0.26123122     0.01300
C251        C  0.04573081  0.59969400  0.26424682     0.16300
C252        C  0.09486187  0.64288960  0.26398540     0.25700
C253        C  0.13808003  0.63798818  0.26057577    -0.40600
C254        C  0.13168111  0.58860704  0.25851280     0.32800
C255        C  0.98589664  0.50645436  0.25913027     0.01400
F256        F  0.00455857  0.60627380  0.26642626    -0.12900
F257        F  0.17263981  0.58270101  0.25519048    -0.13400
C258        C  0.94898560  0.49286164  0.27091046     0.16300
C259        C  0.89818279  0.45310944  0.26838678     0.25700
C260        C  0.88392522  0.42606685  0.25413246    -0.40600
C261        C  0.92073303  0.44003605  0.24233459     0.32700
C262        C  0.97113039  0.48005778  0.24476877     0.14400
F263        F  0.96250463  0.51737147  0.28496225    -0.12900
F264        F  0.90770056  0.41495774  0.22836016    -0.13400
F265        F  0.86370003  0.43939941  0.28010276    -0.15700
F266        F  0.00532790  0.49370698  0.23296401    -0.14300
F267        F  0.07647201  0.49785594  0.25614058    -0.14300
F268        F  0.09993908  0.68995098  0.26653220    -0.15700
C269        C  0.25238988  0.76761675  0.35084402     0.14400
C270        C  0.25222251  0.81124993  0.34500098     0.01300
C271        C  0.25584412  0.84897777  0.35552837     0.16300
C272        C  0.26111735  0.84375328  0.37166378     0.25700
C273        C  0.26389248  0.80116715  0.37744484    -0.40600
C274        C  0.25833275  0.76266354  0.36684197     0.32800
C275        C  0.25210593  0.81805381  0.32783291     0.01400
F276        F  0.25545267  0.89134528  0.35014263    -0.12900
F277        F  0.25965410  0.72043442  0.37192527    -0.13400
C278        C  0.20819020  0.78534101  0.31880888     0.16300
C279        C  0.21135536  0.78340296  0.30252382     0.25700
C280        C  0.25866170  0.81352072  0.29506029    -0.40600
C281        C  0.30184369  0.84838072  0.30397591     0.32700
C282        C  0.29844220  0.85107651  0.32023640     0.14400
F283        F  0.16313032  0.75284837  0.32588145    -0.12900
F284        F  0.34801534  0.87757933  0.29701971    -0.13400
F285        F  0.16941071  0.74867112  0.29419448    -0.15700
F286        F  0.34143320  0.88286116  0.32869468    -0.14300
F287        F  0.24913706  0.73072837  0.34091145    -0.14300
F288        F  0.26637705  0.88166692  0.38149752    -0.15700
C289        C  0.48334277  0.81356277  0.51272665     0.14400
C290        C  0.43228940  0.80370338  0.51103523     0.01300
C291        C  0.40245104  0.79353529  0.52449584     0.16300
C292        C  0.42278270  0.79292480  0.53924864     0.25700
C293        C  0.47379226  0.80248257  0.54103310    -0.40600
C294        C  0.50396529  0.81322193  0.52756166     0.32800
C295        C  0.40940346  0.80264431  0.49530511     0.01400
F296        F  0.35286433  0.78296920  0.52334164    -0.12900
F297        F  0.55307573  0.82240927  0.52867837    -0.13400
C298        C  0.40690242  0.76844891  0.48364014     0.16300
C299        C  0.38405267  0.76607684  0.46904156     0.25700
C300        C  0.36272976  0.79782181  0.46566162    -0.40600
C301        C  0.36505277  0.83192058  0.47742683     0.32700
C302        C  0.38813803  0.83430846  0.49203180     0.14400
F303        F  0.42556156  0.73622215  0.48650928    -0.12900
F304        F  0.34589975  0.86381375  0.47475232    -0.13400
F305        F  0.38249553  0.73205728  0.45826925    -0.15700
F306        F  0.39052794  0.86837345  0.50293005    -0.14300
F307        F  0.51348546  0.82402538  0.49999829    -0.14300
F308        F  0.39234467  0.78358134  0.55185822    -0.15700
C309        C  0.53146092  0.83929656  0.68510280     0.14400
C310        C  0.57235332  0.83297942  0.68001837     0.01300
C311        C  0.60450912  0.82831782  0.69116243     0.16300
C312        C  0.59406590  0.82712059  0.70717329     0.25700
C313        C  0.55090263  0.82997875  0.71220670    -0.40600
C314        C  0.52075260  0.83772972  0.70100082     0.32800
C315        C  0.57606333  0.82419865  0.66315041     0.01400
F316        F  0.64407242  0.82186565  0.68649710    -0.12900
F317        F  0.47973844  0.84217707  0.70540562    -0.13400
C318        C  0.61027663  0.86407181  0.65336847     0.16300
C319        C  0.60635503  0.85726675  0.63704386     0.25700
C320        C  0.56773427  0.81063196  0.63035391    -0.40600
C321        C  0.53614357  0.76977987  0.64031308     0.32700
C322        C  0.54029329  0.77654822  0.65650516     0.14400
F323        F  0.64520849  0.91046452  0.65956647    -0.12900
F324        F  0.49949657  0.72372743  0.63432990    -0.13400
F325        F  0.63743379  0.89750646  0.62781507    -0.15700
F326        F  0.50734611  0.73726472  0.66574514    -0.14300
F327        F  0.50025869  0.84449135  0.67454365    -0.14300
F328        F  0.62382027  0.81931441  0.71762002    -0.15700
C329        C  0.58833038  0.12430187  0.58812735     0.14400
C330        C  0.54085972  0.08412143  0.59345861     0.01300
C331        C  0.50159354  0.09470594  0.59721886     0.16300
C332        C  0.50873373  0.14398373  0.59501294     0.25700
C333        C  0.55559906  0.18376381  0.58923559    -0.40600
C334        C  0.59580358  0.17391342  0.58617796     0.32800
C335        C  0.53148934  0.03077839  0.59428586     0.01400
F336        F  0.45618554  0.05716562  0.60295930    -0.12900
F337        F  0.64125922  0.21154532  0.58050116    -0.13400
C338        C  0.56510467  0.01994224  0.60287531     0.16300
C339        C  0.55974363  0.97095581  0.60214813     0.25700
C340        C  0.52006263  0.93181995  0.59309774    -0.40600
C341        C  0.48457699  0.94158348  0.58525457     0.32700
C342        C  0.49050500  0.99091891  0.58571968     0.14400
F343        F  0.60378246  0.05713713  0.61169495    -0.12900
F344        F  0.44666304  0.90451885  0.57619985    -0.13400
F345        F  0.59399460  0.96190956  0.61001643    -0.15700
F346        F  0.45814680  0.00056887  0.57702926    -0.14300
F347        F  0.62662972  0.11495733  0.58411319    -0.14300
F348        F  0.46983399  0.15292344  0.59859998    -0.15700
C349        C  0.52396254  0.50093456  0.56728763     0.14400
C350        C  0.56032911  0.54508703  0.57543550     0.01300
C351        C  0.60240676  0.54504566  0.58281840     0.16300
C352        C  0.60688098  0.50066691  0.58259875     0.25700
C353        C  0.56925275  0.45547614  0.57494187    -0.40600
C354        C  0.52836127  0.45666609  0.56698099     0.32800
C355        C  0.55312526  0.59040294  0.57661987     0.01400
F356        F  0.63802361  0.58733910  0.59080465    -0.12900
F357        F  0.49194992  0.41472476  0.55904559    -0.13400
C358        C  0.51026949  0.58646269  0.58439693     0.16300
C359        C  0.50287914  0.62894158  0.58545650     0.25700
C360        C  0.53830232  0.67634512  0.57871394    -0.40600
C361        C  0.58120858  0.67996099  0.57085988     0.32700
C362        C  0.58850664  0.63742507  0.56987020     0.14400
F363        F  0.47611769  0.54160026  0.59129585    -0.12900
F364        F  0.61616515  0.72459101  0.56402325    -0.13400
F365        F  0.46179620  0.62390498  0.59347301    -0.15700
F366        F  0.62984370  0.64193105  0.56212316    -0.14300
F367        F  0.48377424  0.50061863  0.55970342    -0.14300
F368        F  0.64686327  0.50143358  0.59044891    -0.15700
C369        C  0.60751883  0.29400957  0.50992559     0.14400
C370        C  0.66099747  0.31632728  0.50800070     0.01300
C371        C  0.69393086  0.34030666  0.52081833     0.16300
C372        C  0.67401805  0.34231471  0.53533400     0.25700
C373        C  0.62026868  0.31997632  0.53743864    -0.40600
C374        C  0.58725231  0.29550511  0.52450776     0.32800
C375        C  0.68295981  0.31695038  0.49249236     0.01400
F376        F  0.74576410  0.36285522  0.51917808    -0.12900
F377        F  0.53535085  0.27282025  0.52592149    -0.13400
C378        C  0.68203841  0.34885142  0.48070646     0.16300
C379        C  0.70433007  0.35140733  0.46622390     0.25700
C380        C  0.72791684  0.32163083  0.46310287    -0.40600
C381        C  0.72890951  0.28972559  0.47504388     0.32700
C382        C  0.70683652  0.28764739  0.48960697     0.14400
F383        F  0.66019557  0.37837123  0.48334001    -0.12900
F384        F  0.75046052  0.25986449  0.47260658    -0.13400
F385        F  0.70278451  0.38338031  0.45529166    -0.15700
F386        F  0.70813492  0.25645631  0.50086068    -0.14300
F387        F  0.57489130  0.27039591  0.49767252    -0.14300
F388        F  0.70781091  0.36639558  0.54730519    -0.15700
C389        C  0.55788321  0.02097170  0.76805588     0.14400
C390        C  0.52009104  0.03007650  0.76149940     0.01300
C391        C  0.47465722  0.98820318  0.75533303     0.16300
C392        C  0.46778447  0.93834537  0.75536253     0.25700
C393        C  0.50644215  0.92936978  0.76148742    -0.40600
C394        C  0.55128996  0.97139021  0.76804886     0.32800
C395        C  0.52840187  0.08330099  0.76098981     0.01400
F396        F  0.43756389  0.99585534  0.74879333    -0.12900
F397        F  0.58941365  0.96492838  0.77436771    -0.13400
C398        C  0.57191932  0.12307016  0.75364660     0.16300
C399        C  0.57915203  0.17299133  0.75287644     0.25700
C400        C  0.54275633  0.18413448  0.75935222    -0.40600
C401        C  0.49975112  0.14428464  0.76699824     0.32700
C402        C  0.49281018  0.09460790  0.76781296     0.14400
F403        F  0.60663768  0.11314508  0.74673909    -0.12900
F404        F  0.46391348  0.15306523  0.77365638    -0.13400
F405        F  0.62088456  0.20982242  0.74529665    -0.15700
F406        F  0.45125227  0.05745441  0.77538472    -0.14300
F407        F  0.60137519  0.06027372  0.77455882    -0.14300
F408        F  0.42386136  0.89927150  0.74899676    -0.15700
C409        C  0.47306543  0.57089608  0.74953496     0.14400
C410        C  0.51955739  0.57819898  0.74323305     0.01300
C411        C  0.55713521  0.62777134  0.73861821     0.16300
C412        C  0.54978484  0.66965016  0.74103597     0.25700
C413        C  0.50418352  0.66272548  0.74777882    -0.40600
C414        C  0.46521116  0.61288215  0.75162517     0.32800
C415        C  0.53013052  0.53490537  0.74220620     0.01400
F416        F  0.60130617  0.63573663  0.73187129    -0.12900
F417        F  0.42098135  0.60529044  0.75822689    -0.13400
C418        C  0.49509144  0.48869249  0.73461056     0.16300
C419        C  0.50289339  0.44647511  0.73492751     0.25700
C420        C  0.54637224  0.45005120  0.74257323    -0.40600
C421        C  0.58309840  0.49709275  0.74930903     0.32700
C422        C  0.57475950  0.53905129  0.74930269     0.14400
F423        F  0.45288925  0.48418423  0.72708804    -0.12900
F424        F  0.62498084  0.50123216  0.75693468    -0.13400
F425        F  0.46737309  0.40158873  0.72802680    -0.15700
F426        F  0.60881716  0.58276980  0.75703178    -0.14300
F427        F  0.43635071  0.52359543  0.75437032    -0.14300
F428        F  0.58748691  0.71730292  0.73679899    -0.15700
C429        C  0.46059421  0.28029752  0.68353834     0.14400
C430        C  0.49820915  0.28023288  0.67389111     0.01300
C431        C  0.53770326  0.27417833  0.68067275     0.16300
C432        C  0.54245133  0.27310532  0.69686971     0.25700
C433        C  0.50770997  0.27804100  0.70667186    -0.40600
C434        C  0.46519686  0.27903991  0.69986605     0.32800
C435        C  0.50111875  0.29307754  0.65708130     0.01400
F436        F  0.57352756  0.27224777  0.67156040    -0.12900
F437        F  0.43067644  0.28326642  0.70896159    -0.13400
C438        C  0.54354038  0.33892931  0.65185902     0.16300
C439        C  0.55214287  0.34854333  0.63593181     0.25700
C440        C  0.51846880  0.31242807  0.62481938    -0.40600
C441        C  0.47364466  0.26836618  0.63002876     0.32700
C442        C  0.46512774  0.25868809  0.64609408     0.14400
F443        F  0.57802941  0.37353283  0.66226716    -0.12900
F444        F  0.44022860  0.23280929  0.61963745    -0.13400
F445        F  0.59471395  0.39245200  0.63137328    -0.15700
F446        F  0.42366887  0.21428408  0.65088164    -0.14300
F447        F  0.42171098  0.28545536  0.67721165    -0.14300
F448        F  0.58270658  0.26980215  0.70298914    -0.15700
C449        C  0.45562394  0.73417008  0.82762122     0.14400
C450        C  0.40240541  0.70056675  0.82936698     0.01300
C451        C  0.36984945  0.68878588  0.81625996     0.16300
C452        C  0.38995378  0.70956690  0.80163267     0.25700
C453        C  0.44352777  0.74261537  0.79969017    -0.40600
C454        C  0.47603403  0.75481111  0.81295436     0.32800
C455        C  0.38049165  0.67822682  0.84485464     0.01400
F456        F  0.31817376  0.65749552  0.81767964    -0.12900
F457        F  0.52769174  0.78659523  0.81178988    -0.13400
C458        C  0.38336387  0.71029192  0.85722467     0.16300
C459        C  0.36165849  0.68942052  0.87169877     0.25700
C460        C  0.33653783  0.63562611  0.87422377    -0.40600
C461        C  0.33395412  0.60359072  0.86176005     0.32700
C462        C  0.35555212  0.62469593  0.84724234     0.14400
F463        F  0.40651386  0.76203608  0.85519875    -0.12900
F464        F  0.31142427  0.55186464  0.86364813    -0.13400
F465        F  0.36524290  0.72226100  0.88321158    -0.15700
F466        F  0.35298757  0.59286709  0.83554975    -0.14300
F467        F  0.48803059  0.74628824  0.84010592    -0.14300
F468        F  0.35661922  0.69672082  0.78936109    -0.15700
C469        C  0.30867824  0.65401284  0.15676350     0.14400
C470        C  0.26524062  0.62892760  0.16628188     0.01300
C471        C  0.22212983  0.58323804  0.16073317     0.16300
C472        C  0.22210435  0.56387617  0.14573091     0.25700
C473        C  0.26487243  0.59048244  0.13593717    -0.40600
C474        C  0.30841713  0.63528516  0.14177134     0.32800
C475        C  0.26495497  0.65218014  0.18166140     0.01400
F476        F  0.17993060  0.55769038  0.16979555    -0.12900
F477        F  0.35094188  0.66141047  0.13286323    -0.13400
C478        C  0.23270488  0.67305884  0.18405417     0.16300
C479        C  0.23583223  0.69936624  0.19798372     0.25700
C480        C  0.27119200  0.70515365  0.20993746    -0.40600
C481        C  0.30281385  0.68319647  0.20755371     0.32700
C482        C  0.29984478  0.65733796  0.19357408     0.14400
F483        F  0.19896281  0.66909329  0.17268897    -0.12900
F484        F  0.33712526  0.68695561  0.21869512    -0.13400
F485        F  0.20376686  0.71869287  0.19977611    -0.15700
F486        F  0.33117085  0.63717114  0.19165708    -0.14300
F487        F  0.35091833  0.69797738  0.16179956    -0.14300
F488        F  0.17943714  0.52063349  0.14052873    -0.15700
C489        C  0.23592316  0.55286707  0.98828462     0.14400
C490        C  0.24769785  0.51646068  0.99439548     0.01300
C491        C  0.25632741  0.48514923  0.98405501     0.16300
C492        C  0.25595864  0.49222967  0.96782585     0.25700
C493        C  0.24725472  0.53095782  0.96178367    -0.40600
C494        C  0.23575229  0.56009048  0.97217788     0.32800
C495        C  0.25584643  0.51558695  0.01150254     0.01400
F496        F  0.26837756  0.45013471  0.98969992    -0.12900
F497        F  0.22613898  0.59704446  0.96673333    -0.13400
C498        C  0.21994174  0.47536322  0.02085366     0.16300
C499        C  0.22457301  0.47909493  0.03723529     0.25700
C500        C  0.26515779  0.52328397  0.04446198    -0.40600
C501        C  0.30263514  0.56195781  0.03495574     0.32700
C502        C  0.29793696  0.55812829  0.01869659     0.14400
F503        F  0.17887044  0.43393840  0.01414467    -0.12900
F504        F  0.34335158  0.60441605  0.04141016    -0.13400
F505        F  0.18753895  0.44120284  0.04597566    -0.15700
F506        F  0.33374260  0.59700154  0.00990960    -0.14300
F507        F  0.22665260  0.58302572  0.99801743    -0.14300
F508        F  0.26821208  0.46420276  0.95814143    -0.15700
C509        C  0.98591097  0.59217626  0.90384275     0.14400
C510        C  0.99586184  0.55497010  0.91028095     0.01300
C511        C  0.95463235  0.50939161  0.91621498     0.16300
C512        C  0.90442080  0.50154614  0.91596465     0.25700
C513        C  0.89438175  0.53930025  0.90979085    -0.40600
C514        C  0.93583997  0.58450235  0.90356176     0.32800
C515        C  0.04905098  0.56322453  0.91052555     0.01400
F516        F  0.96326017  0.47296854  0.92265829    -0.12900
F517        F  0.92822098  0.62168669  0.89721490    -0.13400
C518        C  0.08929174  0.60548758  0.91852869     0.16300
C519        C  0.13913298  0.61217993  0.91902403     0.25700
C520        C  0.14959517  0.57659718  0.91152074    -0.40600
C521        C  0.10924922  0.53508434  0.90316793     0.32700
C522        C  0.05969918  0.52852990  0.90272264     0.14400
F523        F  0.07989076  0.63934937  0.92631555    -0.12900
F524        F  0.11743129  0.50031579  0.89542382    -0.13400
F525        F  0.17651978  0.65240633  0.92730786    -0.15700
F526        F  0.02193840  0.48817156  0.89456568    -0.14300
F527        F  0.02477023  0.63589816  0.89765216    -0.14300
F528        F  0.86603787  0.45759110  0.92219391    -0.15700
C529        C  0.44653985  0.51327965  0.93049318     0.14400
C530        C  0.49653731  0.55347431  0.92757634     0.01300
C531        C  0.50468536  0.60315018  0.92449662     0.16300
C532        C  0.46287071  0.61177805  0.92358894     0.25700
C533        C  0.41250303  0.57067544  0.92558627    -0.40600
C534        C  0.40492102  0.52170524  0.92947534     0.32800
C535        C  0.53950959  0.54269170  0.92685716     0.01400
F536        F  0.55276881  0.64260369  0.92154048    -0.12900
F537        F  0.35688255  0.48155553  0.93208255    -0.13400
C538        C  0.53752604  0.50605791  0.91612781     0.16300
C539        C  0.57939052  0.49795331  0.91473396     0.25700
C540        C  0.62384284  0.52685100  0.92388168    -0.40600
C541        C  0.62529817  0.56225914  0.93491442     0.32700
C542        C  0.58322050  0.56981717  0.93649947     0.14400
F543        F  0.49610642  0.48007708  0.90645193    -0.12900
F544        F  0.66796292  0.59017055  0.94395764    -0.13400
F545        F  0.57792870  0.46452062  0.90375782    -0.15700
F546        F  0.58532925  0.60402146  0.94730209    -0.14300
F547        F  0.43793112  0.46549416  0.93406044    -0.14300
F548        F  0.47132006  0.65933184  0.91981092    -0.15700
C549        C  0.58472473  0.39974861  0.82155007     0.14400
C550        C  0.63777794  0.42355863  0.82503287     0.01300
C551        C  0.67111223  0.42414038  0.81358439     0.16300
C552        C  0.65197507  0.40089582  0.79898493     0.25700
C553        C  0.59865021  0.37651193  0.79536995    -0.40600
C554        C  0.56532887  0.37671042  0.80685383     0.32800
C555        C  0.65828459  0.44425551  0.84094012     0.01400
F556        F  0.72236619  0.44608162  0.81672248    -0.12900
F557        F  0.51403838  0.35504918  0.80387153    -0.13400
C558        C  0.64775247  0.41009948  0.85333919     0.16300
C559        C  0.66979500  0.42826735  0.86813484     0.25700
C560        C  0.70303190  0.48151199  0.87100190    -0.40600
C561        C  0.71271250  0.51590126  0.85855261     0.32700
C562        C  0.69085790  0.49735100  0.84365496     0.14400
F563        F  0.61690052  0.35863078  0.85099952    -0.12900
F564        F  0.74344775  0.56743977  0.86071903    -0.13400
F565        F  0.65815621  0.39322590  0.87965820    -0.15700
F566        F  0.70134075  0.53126628  0.83186222    -0.14300
F567        F  0.55169477  0.39903101  0.83239701    -0.14300
F568        F  0.68606092  0.40197943  0.78846501    -0.15700
C569        C  0.76437591  0.35486415  0.17774766     0.14400
C570        C  0.74313033  0.38699969  0.17558521     0.01300
C571        C  0.71969769  0.39653159  0.18823787     0.16300
C572        C  0.71778011  0.37476940  0.20283571     0.25700
C573        C  0.73961070  0.34294504  0.20518520    -0.40600
C574        C  0.76278531  0.33314722  0.19238436     0.32800
C575        C  0.74361810  0.40918275  0.16002970     0.01400
F576        F  0.69777787  0.42639501  0.18637898    -0.12900
F577        F  0.78465572  0.30318182  0.19401853    -0.13400
C578        C  0.71705184  0.37653645  0.14738953     0.16300
C579        C  0.71570479  0.39686917  0.13281720     0.25700
C580        C  0.74128676  0.45076012  0.13045955    -0.40600
C581        C  0.76806519  0.48345607  0.14321042     0.32700
C582        C  0.76905259  0.46282665  0.15784211     0.14400
F583        F  0.69138209  0.32462274  0.14924413    -0.12900
F584        F  0.79353619  0.53542154  0.14157269    -0.13400
F585        F  0.68920624  0.36333668  0.12102902    -0.15700
F586        F  0.79548869  0.49526285  0.16986063    -0.14300
F587        F  0.78754961  0.34524868  0.16571486    -0.14300
F588        F  0.69452843  0.38522000  0.21466243    -0.15700
C589        C  0.93388795  0.47238332  0.08338086     0.14400
C590        C  0.97369695  0.51681978  0.07634550     0.01300
C591        C  0.96209043  0.55231614  0.06943134     0.16300
C592        C  0.91261314  0.54552074  0.07051322     0.25700
C593        C  0.87359806  0.50266140  0.07828784    -0.40600
C594        C  0.88400671  0.46517850  0.08424206     0.32800
C595        C  0.02777816  0.52784966  0.07718351     0.01400
F596        F  0.99905242  0.59423481  0.06193302    -0.12900
F597        F  0.84704185  0.42369853  0.09189501    -0.13400
C598        C  0.04069212  0.49181421  0.07156765     0.16300
C599        C  0.09048395  0.49994367  0.07379463     0.25700
C600        C  0.12852332  0.54457649  0.08153910    -0.40600
C601        C  0.11652016  0.58206965  0.08635857     0.32700
C602        C  0.06638744  0.57357616  0.08431973     0.14400
F603        F  0.00492106  0.44852099  0.06401058    -0.12900
F604        F  0.15240032  0.62546575  0.09383137    -0.13400
F605        F  0.10156592  0.46402265  0.06837289    -0.15700
F606        F  0.05490753  0.60889222  0.09000937    -0.14300
F607        F  0.94404205  0.43758784  0.09026776    -0.14300
F608        F  0.90296469  0.58151051  0.06424833    -0.15700
C609        C  0.57813038  0.56760198  0.10242598     0.14400
C610        C  0.53060318  0.53209201  0.09564144     0.01300
C611        C  0.52566716  0.48824294  0.08803965     0.16300
C612        C  0.56791899  0.48041181  0.08699422     0.25700
C613        C  0.61603731  0.51633560  0.09361151    -0.40600
C614        C  0.62034471  0.55981254  0.10149975     0.32800
C615        C  0.48604747  0.54065082  0.09647116     0.01400
F616        F  0.48011406  0.45364564  0.08124200    -0.12900
F617        F  0.66547876  0.59512889  0.10834918    -0.13400
C618        C  0.48664680  0.58211719  0.08862774     0.16300
C619        C  0.44307327  0.58803336  0.08858324     0.25700
C620        C  0.39810186  0.55246322  0.09640225    -0.40600
C621        C  0.39864855  0.51228131  0.10481841     0.32700
C622        C  0.44212562  0.50645203  0.10480560     0.14400
F623        F  0.52874195  0.61566241  0.08046847    -0.12900
F624        F  0.35687543  0.47817016  0.11299635    -0.13400
F625        F  0.44415294  0.62707163  0.08026326    -0.15700
F626        F  0.44130444  0.46711240  0.11288850    -0.14300
F627        F  0.58353945  0.60975832  0.11007774    -0.14300
F628        F  0.56192006  0.43839540  0.07912315    -0.15700
C629        C  0.80470682  0.60637801  0.02112120     0.14400
C630        C  0.77081206  0.57030895  0.01008558     0.01300
C631        C  0.72610972  0.52652510  0.01523175     0.16300
C632        C  0.71682257  0.51717801  0.03116263     0.25700
C633        C  0.75232461  0.55140499  0.04235905    -0.40600
C634        C  0.79553072  0.59707793  0.03717235     0.32800
C635        C  0.78357685  0.57478350  0.99329026     0.01400
F636        F  0.69230251  0.49164696  0.00474916    -0.12900
F637        F  0.83067366  0.63097504  0.04756855    -0.13400
C638        C  0.79827080  0.54117713  0.98674581     0.16300
C639        C  0.80130705  0.53775650  0.97056123     0.25700
C640        C  0.79007927  0.56821745  0.96058572    -0.40600
C641        C  0.77923391  0.60476235  0.96719329     0.32700
C642        C  0.77556460  0.60769143  0.98346285     0.14400
F643        F  0.80714779  0.50972214  0.99606010    -0.12900
F644        F  0.76797226  0.63453559  0.95789919    -0.13400
F645        F  0.81320918  0.50306124  0.96458744    -0.15700
F646        F  0.76080256  0.64006541  0.98954785    -0.14300
F647        F  0.84807909  0.64905762  0.01636596    -0.14300
F648        F  0.67374538  0.47356413  0.03561192    -0.15700
loop_ 
_geom_bond_atom_site_label_1 
_geom_bond_atom_site_label_2 
_geom_bond_distance 
_geom_bond_site_symmetry_2 
_ccdc_geom_bond_type 
O1            V9   1.914       .  S
O1           C11   1.269       .  A
O2            V9   1.915       .  S
O2           C12   1.268       .  A
O3            V9   1.890       .  S
O3           C13   1.262       .  A
O4            V9   1.888       .  S
O4           C14   1.262       .  A
O5           V10   1.917       .  S
O5           C14   1.269       .  A
O6           V10   1.920       .  S
O6           C13   1.271       .  A
O7           V10   1.883       .  S
O7           C12   1.260       .  A
O8           V10   1.891       .  S
O8           C11   1.262       .  A
V9           V10   2.084       .  T
C11         C613   1.491       .  S
C12         C593   1.472       .  S
C13         C580   1.495       .  S
C14         C633   1.487       .  S
O15          V23   1.910       .  S
O15          C25   1.268       .  A
O16          V23   1.909       .  S
O16          C26   1.266       .  A
O17          V23   1.893       .  S
O17          C27   1.263       .  A
O18          V23   1.890       .  S
O18          C28   1.262       .  A
O19          V24   1.918       .  S
O19          C28   1.268       .  A
O20          V24   1.923       .  S
O20          C27   1.271       .  A
O21          V24   1.883       .  S
O21          C26   1.259       .  A
O22          V24   1.894       .  S
O22          C25   1.263       .  A
V23          V24   2.085       .  T
C25         C513   1.491       .  S
C26         C540   1.463       .  S
C27         C560   1.500       .  S
C28         C640   1.482       .  S
O29          V37   1.913       .  S
O29          C39   1.268       .  A
O30          V37   1.916       .  S
O30          C40   1.269       .  A
O31          V37   1.892       .  S
O31          C41   1.262       .  A
O32          V37   1.888       .  S
O32          C42   1.262       .  A
O33          V38   1.922       .  S
O33          C42   1.270       .  A
O34          V38   1.926       .  S
O34          C41   1.271       .  A
O35          V38   1.884       .  S
O35          C40   1.260       .  A
O36          V38   1.891       .  S
O36          C39   1.262       .  A
V37          V38   2.084       .  T
C39         C620   1.486       .  S
C40         C600   1.477       .  S
C41         C473   1.491       .  S
C42         C500   1.488       .  S
O43          V51   1.918       .  S
O43          C53   1.270       .  A
O44          V51   1.918       .  S
O44          C54   1.269       .  A
O45          V51   1.893       .  S
O45          C55   1.262       .  A
O46          V51   1.888       .  S
O46          C56   1.261       .  A
O47          V52   1.921       .  S
O47          C56   1.269       .  A
O48          V52   1.922       .  S
O48          C55   1.271       .  A
O49          V52   1.875       .  S
O49          C54   1.258       .  A
O50          V52   1.885       .  S
O50          C53   1.261       .  A
V51          V52   2.084       .  T
C53         C520   1.489       .  S
C54         C533   1.474       .  S
C55         C460   1.498       .  S
C56         C493   1.483       .  S
O57          V65   1.914       .  S
O57          C67   1.269       .  A
O58          V65   1.915       .  S
O58          C68   1.268       .  A
O59          V65   1.891       .  S
O59          C69   1.262       .  A
O60          V65   1.886       .  S
O60          C70   1.262       .  A
O61          V66   1.920       .  S
O61          C70   1.269       .  A
O62          V66   1.925       .  S
O62          C69   1.272       .  A
O63          V66   1.881       .  S
O63          C68   1.259       .  A
O64          V66   1.889       .  S
O64          C67   1.262       .  A
V65          V66   2.084       .  T
C67         C400   1.490       .  S
C68         C420   1.471       .  S
C69         C553   1.499       .  S
C70         C433   1.484       .  S
O71          V79   1.909       .  S
O71          C81   1.267       .  A
O72          V79   1.908       .  S
O72          C82   1.266       .  A
O73          V79   1.892       .  S
O73          C83   1.263       .  A
O74          V79   1.888       .  S
O74          C84   1.262       .  A
O75          V80   1.916       .  S
O75          C84   1.268       .  A
O76          V80   1.919       .  S
O76          C83   1.270       .  A
O77          V80   1.886       .  S
O77          C82   1.261       .  A
O78          V80   1.893       .  S
O78          C81   1.263       .  A
V79          V80   2.085       .  T
C81         C353   1.488       .  S
C82         C333   1.472       .  S
C83         C373   1.496       .  S
C84         C440   1.483       .  S
O85          V93   1.914       .  S
O85          C95   1.269       .  A
O86          V93   1.914       .  S
O86          C96   1.267       .  A
O87          V93   1.898       .  S
O87          C97   1.264       .  A
O88          V93   1.895       .  S
O88          C98   1.264       .  A
O89          V94   1.916       .  S
O89          C98   1.268       .  A
O90          V94   1.918       .  S
O90          C97   1.270       .  A
O91          V94   1.883       .  S
O91          C96   1.260       .  A
O92          V94   1.890       .  S
O92          C95   1.262       .  A
V93          V94   2.084       .  T
C95         C393   1.491       .  S
C96         C413   1.473       .  S
C97         C453   1.498       .  S
C98         C313   1.487       .  S
O99         V107   1.910       .  S
O99         C109   1.268       .  A
O100        V107   1.910       .  S
O100        C110   1.266       .  A
O101        V107   1.892       .  S
O101        C111   1.262       .  A
O102        V107   1.888       .  S
O102        C112   1.262       .  A
O103        V108   1.923       .  S
O103        C112   1.270       .  A
O104        V108   1.928       .  S
O104        C111   1.272       .  A
O105        V108   1.883       .  S
O105        C110   1.260       .  A
O106        V108   1.892       .  S
O106        C109   1.262       .  A
V107        V108   2.085       .  T
C109        C360   1.488       .  S
C110        C340   1.466       .  S
C111        C293   1.498       .  S
C112        C320   1.486       .  S
O113        V121   1.912       .  S
O113        C123   1.269       .  A
O114        V121   1.914       .  S
O114        C124   1.268       .  A
O115        V121   1.900       .  S
O115        C125   1.264       .  A
O116        V121   1.894       .  S
O116        C126   1.262       .  A
O117        V122   1.917       .  S
O117        C126   1.268       .  A
O118        V122   1.918       .  S
O118        C125   1.270       .  A
O119        V122   1.878       .  S
O119        C124   1.260       .  A
O120        V122   1.892       .  S
O120        C123   1.262       .  A
V121        V122   2.085       .  T
C123        C233   1.485       .  S
C124        C253   1.474       .  S
C125        C480   1.499       .  S
C126        C280   1.476       .  S
O127        V135   1.918       .  S
O127        C137   1.270       .  A
O128        V135   1.917       .  S
O128        C138   1.269       .  A
O129        V135   1.898       .  S
O129        C139   1.263       .  A
O130        V135   1.892       .  S
O130        C140   1.263       .  A
O131        V136   1.920       .  S
O131        C140   1.269       .  A
O132        V136   1.924       .  S
O132        C139   1.272       .  A
O133        V136   1.880       .  S
O133        C138   1.259       .  A
O134        V136   1.887       .  S
O134        C137   1.261       .  A
V135        V136   2.084       .  T
C137        C213   1.492       .  S
C138        C193   1.471       .  S
C139        C300   1.502       .  S
C140        C273   1.488       .  S
O141        V149   1.917       .  S
O141        C151   1.269       .  A
O142        V149   1.915       .  S
O142        C152   1.268       .  A
O143        V149   1.894       .  S
O143        C153   1.263       .  A
O144        V149   1.890       .  S
O144        C154   1.262       .  A
O145        V150   1.916       .  S
O145        C154   1.268       .  A
O146        V150   1.914       .  S
O146        C153   1.269       .  A
O147        V150   1.878       .  S
O147        C152   1.259       .  A
O148        V150   1.887       .  S
O148        C151   1.262       .  A
V149        V150   2.082       .  T
C151        C240   1.490       .  S
C152        C260   1.470       .  S
C153        C573   1.494       .  S
C154        C173   1.479       .  S
O155        V163   1.913       .  S
O155        C165   1.269       .  A
O156        V163   1.915       .  S
O156        C166   1.268       .  A
O157        V163   1.892       .  S
O157        C167   1.262       .  A
O158        V163   1.886       .  S
O158        C168   1.261       .  A
O159        V164   1.917       .  S
O159        C168   1.269       .  A
O160        V164   1.919       .  S
O160        C167   1.270       .  A
O161        V164   1.882       .  S
O161        C166   1.260       .  A
O162        V164   1.892       .  S
O162        C165   1.262       .  A
V163        V164   2.085       .  T
C165        C220   1.484       .  S
C166        C200   1.475       .  S
C167        C380   1.495       .  S
C168        C180   1.482       .  S
C169        C170   1.404       .  A
C169        C174   1.404       .  A
C169        F187   1.357       .  S
C170        C175   1.479       .  S
C170        C171   1.404       .  A
C171        C172   1.398       .  A
C171        F176   1.358       .  S
C172        C173   1.407       .  A
C172        F188   1.358       .  S
C173        C174   1.408       .  A
C174        F177   1.358       .  S
C175        C178   1.402       .  A
C175        C182   1.404       .  A
C178        C179   1.397       .  A
C178        F183   1.358       .  S
C179        C180   1.409       .  A
C179        F185   1.358       .  S
C180        C181   1.409       .  A
C181        C182   1.405       .  A
C181        F184   1.357       .  S
C182        F186   1.357       .  S
C189        C190   1.405       .  A
C189        C194   1.397   1_545  A
C189        F207   1.358       .  S
C190        C195   1.486       .  S
C190        C191   1.412   1_545  A
C191        C192   1.400       .  A
C191        F196   1.358   1_565  S
C192        C193   1.401       .  A
C192        F208   1.358       .  S
C193        C194   1.407       .  A
C194        F197   1.359       .  S
C195        C198   1.411       .  A
C195        C202   1.404       .  A
C198        C199   1.402       .  A
C198        F203   1.358       .  S
C199        C200   1.403       .  A
C199        F205   1.358       .  S
C200        C201   1.407       .  A
C201        C202   1.395       .  A
C201        F204   1.358       .  S
C202        F206   1.358       .  S
C209        C210   1.402       .  A
C209        C214   1.396       .  A
C209        F227   1.358       .  S
C210        C215   1.488       .  S
C210        C211   1.409       .  A
C211        C212   1.406       .  A
C211        F216   1.358       .  S
C212        C213   1.410       .  A
C212        F228   1.357       .  S
C213        C214   1.414       .  A
C214        F217   1.358       .  S
C215        C218   1.408   1_455  A
C215        C222   1.405       .  A
C218        C219   1.402       .  A
C218        F223   1.358       .  S
C219        C220   1.407       .  A
C219        F225   1.358       .  S
C220        C221   1.410       .  A
C221        C222   1.401   1_655  A
C221        F224   1.358       .  S
C222        F226   1.358       .  S
C229        C230   1.404   1_565  A
C229        C234   1.401       .  A
C229        F247   1.358       .  S
C230        C235   1.479       .  S
C230        C231   1.402   1_545  A
C231        C232   1.401       .  A
C231        F236   1.358   1_565  S
C232        C233   1.412       .  A
C232        F248   1.358       .  S
C233        C234   1.408       .  A
C234        F237   1.358       .  S
C235        C238   1.399       .  A
C235        C242   1.405       .  A
C238        C239   1.396       .  A
C238        F243   1.358       .  S
C239        C240   1.414       .  A
C239        F245   1.358       .  S
C240        C241   1.411       .  A
C241        C242   1.405       .  A
C241        F244   1.357       .  S
C242        F246   1.358       .  S
C249        C250   1.409       .  A
C249        C254   1.402       .  A
C249        F267   1.358       .  S
C250        C255   1.480   1_455  S
C250        C251   1.402       .  A
C251        C252   1.392       .  A
C251        F256   1.358       .  S
C252        C253   1.408       .  A
C252        F268   1.358       .  S
C253        C254   1.405       .  A
C254        F257   1.358       .  S
C255        C258   1.408       .  A
C255        C262   1.404       .  A
C258        C259   1.401       .  A
C258        F263   1.358       .  S
C259        C260   1.404       .  A
C259        F265   1.358       .  S
C260        C261   1.406       .  A
C261        C262   1.394       .  A
C261        F264   1.359       .  S
C262        F266   1.358   1_655  S
C269        C270   1.403       .  A
C269        C274   1.398       .  A
C269        F287   1.358       .  S
C270        C275   1.486       .  S
C270        C271   1.406       .  A
C271        C272   1.408       .  A
C271        F276   1.357       .  S
C272        C273   1.410       .  A
C272        F288   1.357       .  S
C273        C274   1.410       .  A
C274        F277   1.358       .  S
C275        C278   1.406       .  A
C275        C282   1.406       .  A
C278        C279   1.403       .  A
C278        F283   1.358       .  S
C279        C280   1.405       .  A
C279        F285   1.358       .  S
C280        C281   1.405       .  A
C281        C282   1.403       .  A
C281        F284   1.358       .  S
C282        F286   1.358       .  S
C289        C290   1.411       .  A
C289        C294   1.410       .  A
C289        F307   1.357       .  S
C290        C295   1.499       .  S
C290        C291   1.405       .  A
C291        C292   1.401       .  A
C291        F296   1.358       .  S
C292        C293   1.414       .  A
C292        F308   1.358       .  S
C293        C294   1.409       .  A
C294        F297   1.357       .  S
C295        C298   1.405       .  A
C295        C302   1.410       .  A
C298        C299   1.404       .  A
C298        F303   1.358       .  S
C299        C300   1.415       .  A
C299        F305   1.358       .  S
C300        C301   1.411       .  A
C301        C302   1.407       .  A
C301        F304   1.357       .  S
C302        F306   1.358       .  S
C309        C310   1.404       .  A
C309        C314   1.398       .  A
C309        F327   1.358       .  S
C310        C315   1.484       .  S
C310        C311   1.405       .  A
C311        C312   1.407       .  A
C311        F316   1.357       .  S
C312        C313   1.410       .  A
C312        F328   1.357       .  S
C313        C314   1.408       .  A
C314        F317   1.358       .  S
C315        C318   1.406       .  A
C315        C322   1.403       .  A
C318        C319   1.408       .  A
C318        F323   1.357       .  S
C319        C320   1.410       .  A
C319        F325   1.357       .  S
C320        C321   1.409       .  A
C321        C322   1.397       .  A
C321        F324   1.358       .  S
C322        F326   1.358       .  S
C329        C330   1.409       .  A
C329        C334   1.399       .  A
C329        F347   1.358       .  S
C330        C335   1.481       .  S
C330        C331   1.404       .  A
C331        C332   1.396       .  A
C331        F336   1.358       .  S
C332        C333   1.407       .  A
C332        F348   1.358       .  S
C333        C334   1.403       .  A
C334        F337   1.358       .  S
C335        C338   1.405       .  A
C335        C342   1.409   1_545  A
C338        C339   1.396   1_545  A
C338        F343   1.358       .  S
C339        C340   1.405       .  A
C339        F345   1.358       .  S
C340        C341   1.401       .  A
C341        C342   1.399       .  A
C341        F344   1.358       .  S
C342        F346   1.358   1_565  S
C349        C350   1.402       .  A
C349        C354   1.398       .  A
C349        F367   1.358       .  S
C350        C355   1.482       .  S
C350        C351   1.405       .  A
C351        C352   1.402       .  A
C351        F356   1.358       .  S
C352        C353   1.411       .  A
C352        F368   1.358       .  S
C353        C354   1.412       .  A
C354        F357   1.358       .  S
C355        C358   1.405       .  A
C355        C362   1.402       .  A
C358        C359   1.400       .  A
C358        F363   1.358       .  S
C359        C360   1.409       .  A
C359        F365   1.358       .  S
C360        C361   1.413       .  A
C361        C362   1.400       .  A
C361        F364   1.358       .  S
C362        F366   1.358       .  S
C369        C370   1.406       .  A
C369        C374   1.406       .  A
C369        F387   1.358       .  S
C370        C375   1.485       .  S
C370        C371   1.401       .  A
C371        C372   1.399       .  A
C371        F376   1.358       .  S
C372        C373   1.415       .  A
C372        F388   1.358       .  S
C373        C374   1.412       .  A
C374        F377   1.357       .  S
C375        C378   1.401       .  A
C375        C382   1.406       .  A
C378        C379   1.400       .  A
C378        F383   1.358       .  S
C379        C380   1.415       .  A
C379        F385   1.358       .  S
C380        C381   1.411       .  A
C381        C382   1.405       .  A
C381        F384   1.357       .  S
C382        F386   1.358       .  S
C389        C390   1.403       .  A
C389        C394   1.398   1_545  A
C389        F407   1.358       .  S
C390        C395   1.487       .  S
C390        C391   1.408   1_545  A
C391        C392   1.403       .  A
C391        F396   1.358       .  S
C392        C393   1.410       .  A
C392        F408   1.358       .  S
C393        C394   1.413       .  A
C394        F397   1.358       .  S
C395        C398   1.408       .  A
C395        C402   1.403       .  A
C398        C399   1.402       .  A
C398        F403   1.358       .  S
C399        C400   1.409       .  A
C399        F405   1.358       .  S
C400        C401   1.413       .  A
C401        C402   1.399       .  A
C401        F404   1.358       .  S
C402        F406   1.358       .  S
C409        C410   1.411       .  A
C409        C414   1.403       .  A
C409        F427   1.358       .  S
C410        C415   1.485       .  S
C410        C411   1.404       .  A
C411        C412   1.394       .  A
C411        F416   1.358       .  S
C412        C413   1.406       .  A
C412        F428   1.358       .  S
C413        C414   1.403       .  A
C414        F417   1.358       .  S
C415        C418   1.405       .  A
C415        C422   1.410       .  A
C418        C419   1.397       .  A
C418        F423   1.358       .  S
C419        C420   1.407       .  A
C419        F425   1.358       .  S
C420        C421   1.402       .  A
C421        C422   1.400       .  A
C421        F424   1.358       .  S
C422        F426   1.358       .  S
C429        C430   1.406       .  A
C429        C434   1.407       .  A
C429        F447   1.357       .  S
C430        C435   1.483       .  S
C430        C431   1.404       .  A
C431        C432   1.396       .  A
C431        F436   1.359       .  S
C432        C433   1.409       .  A
C432        F448   1.359       .  S
C433        C434   1.409       .  A
C434        F437   1.357       .  S
C435        C438   1.404       .  A
C435        C442   1.406       .  A
C438        C439   1.395       .  A
C438        F443   1.358       .  S
C439        C440   1.408       .  A
C439        F445   1.358       .  S
C440        C441   1.410       .  A
C441        C442   1.407       .  A
C441        F444   1.357       .  S
C442        F446   1.357       .  S
C449        C450   1.407       .  A
C449        C454   1.406       .  A
C449        F467   1.358       .  S
C450        C455   1.491       .  S
C450        C451   1.403       .  A
C451        C452   1.402       .  A
C451        F456   1.358       .  S
C452        C453   1.415       .  A
C452        F468   1.358       .  S
C453        C454   1.412       .  A
C454        F457   1.357       .  S
C455        C458   1.403       .  A
C455        C462   1.407       .  A
C458        C459   1.402       .  A
C458        F463   1.358       .  S
C459        C460   1.416       .  A
C459        F465   1.358       .  S
C460        C461   1.411       .  A
C461        C462   1.406       .  A
C461        F464   1.357       .  S
C462        F466   1.358       .  S
C469        C470   1.404       .  A
C469        C474   1.400       .  A
C469        F487   1.358       .  S
C470        C475   1.492       .  S
C470        C471   1.409       .  A
C471        C472   1.410       .  A
C471        F476   1.357       .  S
C472        C473   1.409       .  A
C472        F488   1.357       .  S
C473        C474   1.410       .  A
C474        F477   1.358       .  S
C475        C478   1.406       .  A
C475        C482   1.405       .  A
C478        C479   1.406       .  A
C478        F483   1.357       .  S
C479        C480   1.412       .  A
C479        F485   1.357       .  S
C480        C481   1.414       .  A
C481        C482   1.404       .  A
C481        F484   1.358       .  S
C482        F486   1.358       .  S
C489        C490   1.404       .  A
C489        C494   1.398       .  A
C489        F507   1.358       .  S
C490        C495   1.486   1_556  S
C490        C491   1.407       .  A
C491        C492   1.408       .  A
C491        F496   1.357       .  S
C492        C493   1.409       .  A
C492        F508   1.358       .  S
C493        C494   1.407       .  A
C494        F497   1.358       .  S
C495        C498   1.406       .  A
C495        C502   1.404       .  A
C498        C499   1.408       .  A
C498        F503   1.357       .  S
C499        C500   1.410       .  A
C499        F505   1.357       .  S
C500        C501   1.410       .  A
C501        C502   1.398       .  A
C501        F504   1.358       .  S
C502        F506   1.358       .  S
C509        C510   1.403       .  A
C509        C514   1.400       .  A
C509        F527   1.358   1_655  S
C510        C515   1.486   1_655  S
C510        C511   1.407       .  A
C511        C512   1.402       .  A
C511        F516   1.358       .  S
C512        C513   1.410       .  A
C512        F528   1.358       .  S
C513        C514   1.413       .  A
C514        F517   1.358       .  S
C515        C518   1.408       .  A
C515        C522   1.402       .  A
C518        C519   1.404       .  A
C518        F523   1.358       .  S
C519        C520   1.409       .  A
C519        F525   1.357       .  S
C520        C521   1.413       .  A
C521        C522   1.397       .  A
C521        F524   1.358       .  S
C522        F526   1.358       .  S
C529        C530   1.401       .  A
C529        C534   1.393       .  A
C529        F547   1.358       .  S
C530        C535   1.478       .  S
C530        C531   1.409       .  A
C531        C532   1.402       .  A
C531        F536   1.358       .  S
C532        C533   1.404       .  A
C532        F548   1.357       .  S
C533        C534   1.409       .  A
C534        F537   1.359       .  S
C535        C538   1.409       .  A
C535        C542   1.403       .  A
C538        C539   1.398       .  A
C538        F543   1.358       .  S
C539        C540   1.400       .  A
C539        F545   1.358       .  S
C540        C541   1.405       .  A
C541        C542   1.396       .  A
C541        F544   1.357       .  S
C542        F546   1.358       .  S
C549        C550   1.407       .  A
C549        C554   1.408       .  A
C549        F567   1.357       .  S
C550        C555   1.490       .  S
C550        C551   1.402       .  A
C551        C552   1.401       .  A
C551        F556   1.358       .  S
C552        C553   1.416       .  A
C552        F568   1.358       .  S
C553        C554   1.412       .  A
C554        F557   1.357       .  S
C555        C558   1.401       .  A
C555        C562   1.407       .  A
C558        C559   1.400       .  A
C558        F563   1.358       .  S
C559        C560   1.416       .  A
C559        F565   1.358       .  S
C560        C561   1.412       .  A
C561        C562   1.408       .  A
C561        F564   1.357       .  S
C562        F566   1.358       .  S
C569        C570   1.407       .  A
C569        C574   1.404       .  A
C569        F587   1.358       .  S
C570        C575   1.487       .  S
C570        C571   1.402       .  A
C571        C572   1.400       .  A
C571        F576   1.358       .  S
C572        C573   1.414       .  A
C572        F588   1.358       .  S
C573        C574   1.411       .  A
C574        F577   1.358       .  S
C575        C578   1.402       .  A
C575        C582   1.407       .  A
C578        C579   1.399       .  A
C578        F583   1.358       .  S
C579        C580   1.416       .  A
C579        F585   1.358       .  S
C580        C581   1.411       .  A
C581        C582   1.405       .  A
C581        F584   1.357       .  S
C582        F586   1.358       .  S
C589        C590   1.410       .  A
C589        C594   1.402       .  A
C589        F607   1.358       .  S
C590        C595   1.484   1_655  S
C590        C591   1.404       .  A
C591        C592   1.396       .  A
C591        F596   1.358       .  S
C592        C593   1.406       .  A
C592        F608   1.358       .  S
C593        C594   1.403       .  A
C594        F597   1.358       .  S
C595        C598   1.403       .  A
C595        C602   1.410       .  A
C598        C599   1.397       .  A
C598        F603   1.358       .  S
C599        C600   1.409       .  A
C599        F605   1.358       .  S
C600        C601   1.403       .  A
C601        C602   1.401       .  A
C601        F604   1.357       .  S
C602        F606   1.358       .  S
C609        C610   1.401       .  A
C609        C614   1.399       .  A
C609        F627   1.358       .  S
C610        C615   1.483       .  S
C610        C611   1.406       .  A
C611        C612   1.402       .  A
C611        F616   1.358       .  S
C612        C613   1.410       .  A
C612        F628   1.357       .  S
C613        C614   1.414       .  A
C614        F617   1.358       .  S
C615        C618   1.406       .  A
C615        C622   1.402       .  A
C618        C619   1.403       .  A
C618        F623   1.358       .  S
C619        C620   1.409       .  A
C619        F625   1.358       .  S
C620        C621   1.412       .  A
C621        C622   1.398       .  A
C621        F624   1.358       .  S
C622        F626   1.358       .  S
C629        C630   1.405       .  A
C629        C634   1.406       .  A
C629        F647   1.357       .  S
C630        C635   1.482   1_554  S
C630        C631   1.403       .  A
C631        C632   1.397       .  A
C631        F636   1.358       .  S
C632        C633   1.410       .  A
C632        F648   1.358       .  S
C633        C634   1.410       .  A
C634        F637   1.357       .  S
C635        C638   1.404       .  A
C635        C642   1.405       .  A
C638        C639   1.398       .  A
C638        F643   1.358       .  S
C639        C640   1.407       .  A
C639        F645   1.358       .  S
C640        C641   1.409       .  A
C641        C642   1.406       .  A
C641        F644   1.357       .  S
C642        F646   1.357       .  S
