geometry optimzed in LAMMPS
_audit_creation_date              2020-12-01 
_audit_creation_method            'lammps2cif' 
_symmetry_space_group_name_H-M    'P1' 
_symmetry_Int_Tables_number       1 
_symmetry_cell_setting            triclinic 
loop_ 
_symmetry_equiv_pos_as_xyz 
  x,y,z 
_cell_length_a                    38.63082951 
_cell_length_b                    39.12919366506807 
_cell_length_c                    38.85455851404751 
_cell_angle_alpha                 89.73981961944715 
_cell_angle_beta                  90.10095866326154 
_cell_angle_gamma                 90.3288600003516 
loop_ 
_atom_site_label 
_atom_site_type_symbol 
_atom_site_fract_x 
_atom_site_fract_y 
_atom_site_fract_z 
_atom_site_charge 
C1          C  0.78745018  0.80165361  0.02925159     0.03400
C2          C  0.77898688  0.78455864  0.99817099    -0.12800
C3          C  0.79625699  0.79361351  0.96722222     0.00900
C4          C  0.82374633  0.81718671  0.96878461    -0.11300
C5          C  0.82944448  0.83636629  0.99814153     0.03300
C6          C  0.81069989  0.82936249  0.02775850    -0.10700
H7          H  0.75896517  0.76508199  0.99795590     0.08900
H8          H  0.83927102  0.82269655  0.94621111     0.06500
H9          H  0.81476005  0.84578564  0.04974181     0.06300
C10         C  0.74803288  0.24548594  0.04075271     0.03400
C11         C  0.77486095  0.22125920  0.04018777    -0.12800
C12         C  0.78639564  0.20727955  0.00946598     0.00900
C13         C  0.77031745  0.21629219  0.97868656    -0.11300
C14         C  0.74482384  0.24186337  0.97742798     0.03300
C15         C  0.73279291  0.25564732  0.00898759    -0.10700
H16         H  0.78656034  0.21218955  0.06383862     0.08900
H17         H  0.77879898  0.20380993  0.95539602     0.06500
H18         H  0.71261171  0.27473850  0.00876535     0.06300
C19         C  0.24965830  0.83463569  0.03488096     0.03400
C20         C  0.22179350  0.85753649  0.03415690    -0.12800
C21         C  0.21393012  0.87607201  0.00472001     0.00900
C22         C  0.23223364  0.87037852  0.97464934    -0.11300
C23         C  0.25592138  0.84334160  0.97250190     0.03300
C24         C  0.26597470  0.82637930  0.00329463    -0.10700
H25         H  0.20577435  0.86135440  0.05662383     0.08900
H26         H  0.22589452  0.88555366  0.95213794     0.06500
H27         H  0.28547823  0.80662991  0.00255653     0.06300
C28         C  0.78139597  0.07095447  0.76978019     0.03400
C29         C  0.80999182  0.06673226  0.79180781    -0.12800
C30         C  0.82118823  0.03439009  0.80165683     0.00900
C31         C  0.80578935  0.00542250  0.78762224    -0.11300
C32         C  0.77925050  0.00821158  0.76301413     0.03300
C33         C  0.76620957  0.04120701  0.75496067    -0.10700
H34         H  0.82387335  0.08844905  0.80209526     0.08900
H35         H  0.81468140  0.98052309  0.79605746     0.06500
H36         H  0.74474830  0.04371129  0.73717776     0.06300
C37         C  0.96705468  0.25051851  0.75281299     0.03400
C38         C  0.96621071  0.22865850  0.78161744    -0.12800
C39         C  0.99623908  0.21469439  0.79521886     0.00900
C40         C  0.02764324  0.22025428  0.77865649    -0.11300
C41         C  0.03045449  0.24266465  0.75025961     0.03300
C42         C  0.99951962  0.25720749  0.73672262    -0.10700
H43         H  0.94190480  0.22231929  0.79399301     0.08900
H44         H  0.04992698  0.20663914  0.78839523     0.06500
H45         H  0.00080914  0.27422914  0.71470682     0.06300
C46         C  0.97257152  0.82867355  0.76804252     0.03400
C47         C  0.97809980  0.85081413  0.79604235    -0.12800
C48         C  0.01094121  0.86377711  0.80342046     0.00900
C49         C  0.03918282  0.85353913  0.78404402    -0.11300
C50         C  0.03536691  0.82892176  0.75809381     0.03300
C51         C  0.00179064  0.81723962  0.74934109    -0.10700
H52         H  0.95719678  0.85823798  0.81278187     0.08900
H53         H  0.06462445  0.86360472  0.79036326     0.06500
H54         H  0.99854087  0.79884521  0.72882592     0.06300
C55         C  0.23894368  0.07071590  0.78381968     0.03400
C56         C  0.21983470  0.07000109  0.81450348    -0.12800
C57         C  0.20710248  0.03946830  0.82769470     0.00900
C58         C  0.21610747  0.00881995  0.81239420    -0.11300
C59         C  0.23600780  0.00831114  0.78216465     0.03300
C60         C  0.24801172  0.03955741  0.76809904    -0.10700
H61         H  0.21319605  0.09348508  0.82751902     0.08900
H62         H  0.20706383  0.98537605  0.82434221     0.06500
H63         H  0.26301354  0.03968451  0.74457101     0.06300
C64         C  0.97289531  0.79287635  0.21153039     0.03400
C65         C  0.00575095  0.78008540  0.22192490    -0.12800
C66         C  0.03689136  0.79686918  0.21159236     0.00900
C67         C  0.03420799  0.82747378  0.19264251    -0.11300
C68         C  0.00227604  0.84007690  0.18211132     0.03300
C69         C  0.97197724  0.82307313  0.19167660    -0.10700
H70         H  0.00707319  0.75711209  0.23750304     0.08900
H71         H  0.05697463  0.84219347  0.18587332     0.06500
H72         H  0.94757586  0.83455252  0.18446556     0.06300
C73         C  0.76120043  0.06191709  0.22311741     0.03400
C74         C  0.78909908  0.06117958  0.19991810    -0.12800
C75         C  0.79721050  0.03175076  0.18181358     0.00900
C76         C  0.77899723  0.00169212  0.18848641    -0.11300
C77         C  0.75452515  0.99984670  0.21525405     0.03300
C78         C  0.74457925  0.03055669  0.23176828    -0.10700
H79         H  0.80477041  0.08372773  0.19532989     0.08900
H80         H  0.78542686  0.97908710  0.17387001     0.06500
H81         H  0.72464913  0.02998325  0.25133002     0.06300
C82         C  0.96314996  0.24244764  0.25713236     0.03400
C83         C  0.96221438  0.22406852  0.22623879    -0.12800
C84         C  0.99227962  0.21329818  0.21030562     0.00900
C85         C  0.02438827  0.22205412  0.22402110    -0.11300
C86         C  0.02729222  0.24324934  0.25308012     0.03300
C87         C  0.99612728  0.25291539  0.27020472    -0.10700
H88         H  0.93783513  0.21831262  0.21368211     0.08900
H89         H  0.04710461  0.21147397  0.21191789     0.06500
H90         H  0.99750686  0.26837290  0.29321104     0.06300
Zr91       Zr  0.28484069  0.33029374  0.29346157     2.17500
O92         O  0.32294106  0.34527464  0.34136309    -0.51100
O93         O  0.28083411  0.39221457  0.28385986    -0.74300
O94         O  0.34625954  0.33292284  0.27738002    -0.81100
O95         O  0.21365184  0.30370453  0.36090036    -0.82800
O96         O  0.35659580  0.31255114  0.22366360    -0.78500
O97         O  0.26466694  0.33207192  0.35302319    -0.90100
O98         O  0.23662477  0.40683574  0.24835018    -0.76100
O99         O  0.27814195  0.34359900  0.23413802    -0.85600
O100        O  0.22433376  0.33961363  0.28609760    -0.85200
O101        O  0.30564176  0.28019605  0.26432089    -0.72000
O102        O  0.25627463  0.27842977  0.31133183    -0.84100
Zr103      Zr  0.21027728  0.25121835  0.21175193     2.26400
Zr104      Zr  0.29881713  0.29407995  0.20418769     2.06300
Zr105      Zr  0.19557935  0.28706689  0.30231751     2.10000
Zr106      Zr  0.21745297  0.35207548  0.22635960     1.78800
O107        O  0.17906096  0.23922204  0.33918660    -0.92900
O108        O  0.23555413  0.38621210  0.17683541    -0.40700
O109        O  0.18910386  0.29992578  0.24221794    -0.77400
O110        O  0.23799714  0.30386814  0.19457591    -0.96100
O111        O  0.27024650  0.24180194  0.22095432    -0.89400
O112        O  0.21553744  0.23788053  0.27147151    -0.92200
C113        C  0.26207369  0.41440628  0.26800004     1.01500
C114        C  0.23990726  0.32082144  0.37217240     1.14500
C115        C  0.36675295  0.32541256  0.25241485     1.05300
O116        O  0.31704431  0.34073441  0.16663429    -0.94400
O117        O  0.28394702  0.27627326  0.14561412    -0.90100
O118        O  0.23310527  0.24761219  0.15284676    -0.83300
C119        C  0.25844498  0.25839981  0.13415660     1.11900
O120        O  0.32225982  0.22731029  0.32358091    -0.96300
Zr121      Zr  0.27584235  0.22911756  0.28085467     1.88900
O122        O  0.21730549  0.18925957  0.21727317    -0.73000
O123        O  0.33918105  0.25200606  0.18204957    -0.52300
O124        O  0.32563776  0.19838606  0.25857620    -0.96900
O125        O  0.25687089  0.19891449  0.33262229    -0.54100
O126        O  0.25542742  0.17459333  0.25927764    -0.73500
C127        C  0.23417060  0.16709500  0.23511792     0.98800
O128        O  0.16634629  0.23568326  0.16927008    -0.62300
O129        O  0.15006550  0.32426340  0.32350607    -0.57100
O130        O  0.14838699  0.25263445  0.22554026    -0.93800
O131        O  0.13807386  0.27064105  0.28015892    -0.92200
O132        O  0.16460884  0.37741923  0.24851607    -0.92600
O133        O  0.17394423  0.35687803  0.18115214    -0.91400
C134        C  0.12782779  0.25967032  0.25061650     1.17700
H135        H  0.21652698  0.35837021  0.30014296     0.33600
H136        H  0.23330607  0.30911586  0.17073430     0.44500
H137        H  0.20196661  0.21795376  0.27750013     0.38000
H138        H  0.32935750  0.27491503  0.26987495     0.34500
H139        H  0.22309525  0.40812959  0.17915708     0.26300
H140        H  0.35589270  0.26542687  0.16811370     0.32200
H141        H  0.32522224  0.17599465  0.27054839     0.38100
H142        H  0.16410522  0.40068472  0.23840327     0.32600
H143        H  0.13722905  0.31011170  0.34045145     0.31500
H144        H  0.15603289  0.24543600  0.34828737     0.33100
H145        H  0.23412522  0.18880424  0.32658650     0.32100
H146        H  0.15863966  0.33676931  0.18455879     0.36100
H147        H  0.16572582  0.25498581  0.15269854     0.28800
H148        H  0.33711151  0.36492281  0.33338517     0.33100
H149        H  0.32415307  0.20308400  0.33077359     0.35900
H150        H  0.16205673  0.34179276  0.33749514     0.28500
H151        H  0.17585898  0.21623021  0.15617591     0.41400
H152        H  0.29638847  0.34583556  0.15243217     0.31500
H153        H  0.26006669  0.39213033  0.18148138     0.39100
H154        H  0.25138780  0.21717714  0.34927544     0.30900
H155        H  0.35256740  0.24439471  0.20240703     0.31000
H156        H  0.33935921  0.32603364  0.34363639     0.31200
C157        C  0.22652250  0.06784113  0.23487474     0.03400
C158        C  0.19649267  0.06336595  0.21489434    -0.12800
C159        C  0.18766588  0.03161481  0.20139538     0.00900
C160        C  0.20751831  0.00310553  0.20955242    -0.11300
C161        C  0.23676903  0.00591393  0.23106203     0.03300
C162        C  0.24594699  0.03852419  0.24416396    -0.10700
H163        H  0.17994507  0.08476909  0.20878682     0.08900
H164        H  0.19946953  0.97853190  0.19948808     0.06500
H165        H  0.26857703  0.04120347  0.26044364     0.06300
Zr166      Zr  0.29100925  0.75206913  0.29582015     2.17500
O167        O  0.33328093  0.70641136  0.30263942    -0.51100
O168        O  0.27803466  0.75130362  0.35727821    -0.74300
O169        O  0.34971774  0.77310205  0.30961856    -0.81100
O170        O  0.22328043  0.68447060  0.26294797    -0.82800
O171        O  0.36005227  0.82515666  0.28524455    -0.78500
O172        O  0.27128160  0.69258431  0.29614113    -0.90100
O173        O  0.23849597  0.79132795  0.37212702    -0.76100
O174        O  0.28169419  0.81016920  0.31099015    -0.85600
O175        O  0.23003467  0.75694409  0.30243864    -0.85200
O176        O  0.31360933  0.78429258  0.24806333    -0.72000
O177        O  0.26566131  0.73584031  0.24178017    -0.84100
Zr178      Zr  0.21754220  0.83356490  0.21599010     2.26400
Zr179      Zr  0.30341890  0.84308230  0.26305417     2.06300
Zr180      Zr  0.20435716  0.74225697  0.24811786     2.10000
Zr181      Zr  0.22040830  0.81497133  0.31715458     1.78800
O182        O  0.18756270  0.70859377  0.19811321    -0.92900
O183        O  0.23281606  0.86542166  0.35157248    -0.40700
O184        O  0.19484788  0.80072148  0.26300395    -0.77400
O185        O  0.24186931  0.84954945  0.27076457    -0.96100
O186        O  0.27816624  0.82756289  0.20881165    -0.89400
O187        O  0.22606418  0.77544632  0.20061211    -0.92200
C188        C  0.25913471  0.76685695  0.37940087     1.01500
C189        C  0.24783950  0.67351131  0.28234019     1.14500
C190        C  0.36979726  0.79855101  0.30213515     1.05300
O191        O  0.31997014  0.88296330  0.30826552    -0.94400
O192        O  0.28691970  0.90092088  0.24487226    -0.90100
O193        O  0.23703000  0.89305833  0.21464813    -0.83300
C194        C  0.26153645  0.91196912  0.22654050     1.11900
O195        O  0.32770920  0.72164433  0.19200964    -0.96300
Zr196      Zr  0.28708959  0.76905079  0.19456010     1.88900
O197        O  0.23324361  0.83555477  0.15518265    -0.73000
O198        O  0.34635210  0.86457554  0.22247058    -0.52300
O199        O  0.34205189  0.79068174  0.17240531    -0.96900
O200        O  0.26770931  0.72339555  0.15649480    -0.54100
O201        O  0.27386264  0.79660458  0.14037034    -0.73500
C202        C  0.25333467  0.82116305  0.13330933     0.98800
O203        O  0.17073190  0.87343041  0.20357061    -0.62300
O204        O  0.16030273  0.71622487  0.28483192    -0.57100
O205        O  0.15792659  0.81417882  0.20561796    -0.93800
O206        O  0.14707925  0.76285360  0.23133626    -0.92200
O207        O  0.16904660  0.78732960  0.34098770    -0.92600
O208        O  0.17119118  0.85336329  0.32050953    -0.91400
C209        C  0.13749222  0.78950438  0.21447463     1.17700
H210        H  0.22169978  0.74178694  0.32030944     0.33600
H211        H  0.23606854  0.87280341  0.27649867     0.44500
H212        H  0.21393055  0.77006988  0.17953906     0.38000
H213        H  0.33797073  0.77989168  0.24511012     0.34500
H214        H  0.22311478  0.86012572  0.37456865     0.26300
H215        H  0.36106878  0.88024105  0.23618013     0.32200
H216        H  0.34283217  0.78316230  0.14812486     0.38100
H217        H  0.16873972  0.79400688  0.36553138     0.32600
H218        H  0.15316399  0.69518798  0.27258923     0.31500
H219        H  0.17686978  0.68759819  0.20776577     0.33100
H220        H  0.25051668  0.73392769  0.14085381     0.32100
H221        H  0.16401218  0.85688084  0.29627682     0.36100
H222        H  0.17021404  0.88934109  0.22331347     0.28800
H223        H  0.34428437  0.70999461  0.32538668     0.33100
H224        H  0.33629670  0.72131732  0.16801869     0.35900
H225        H  0.17273280  0.70788788  0.30549176     0.28500
H226        H  0.17865621  0.88742180  0.18376334     0.41400
H227        H  0.32173456  0.86882883  0.32938480     0.31500
H228        H  0.25820952  0.86507125  0.35498812     0.39100
H229        H  0.25388260  0.70802455  0.17147188     0.30900
H230        H  0.36138533  0.84476577  0.21765265     0.31000
H231        H  0.35166343  0.71136854  0.28556413     0.31200
Zr232      Zr  0.78647109  0.24407769  0.22020500     2.17500
O233        O  0.82798252  0.22507029  0.17705683    -0.51100
O234        O  0.77316538  0.18291161  0.21894607    -0.74300
O235        O  0.84522368  0.23555966  0.24313919    -0.81100
O236        O  0.72031751  0.27215052  0.14915182    -0.82800
O237        O  0.85290722  0.25977412  0.29570106    -0.78500
O238        O  0.77542899  0.25447708  0.15908472    -0.90100
O239        O  0.73394201  0.16675833  0.25937234    -0.76100
O240        O  0.77694395  0.23080354  0.27921805    -0.85600
O241        O  0.72580906  0.23311349  0.22464232    -0.85200
O242        O  0.80613548  0.29384973  0.25110433    -0.72000
O243        O  0.75887531  0.29579543  0.20186225    -0.84100
Zr244      Zr  0.70704722  0.32199676  0.29761826     2.26400
Zr245      Zr  0.79526297  0.28055722  0.31066556     2.06300
Zr246      Zr  0.69805393  0.28492152  0.20687444     2.10000
Zr247      Zr  0.71614870  0.22092087  0.28412401     1.78800
O248        O  0.67800850  0.32831536  0.16655673    -0.92900
O249        O  0.73687840  0.18719478  0.33275301    -0.40700
O250        O  0.68768575  0.27248342  0.26650833    -0.77400
O251        O  0.73420635  0.26996889  0.31639183    -0.96100
O252        O  0.76750240  0.33231718  0.29268019    -0.89400
O253        O  0.71647566  0.33452579  0.23840326    -0.92200
C254        C  0.75472460  0.16025913  0.23462792     1.01500
C255        C  0.75043279  0.26280463  0.13881156     1.14500
C256        C  0.86402372  0.24344976  0.26938845     1.05300
O257        O  0.80901131  0.23577899  0.35211590    -0.94400
O258        O  0.77728014  0.30205353  0.36701485    -0.90100
O259        O  0.72750473  0.33135484  0.35664352    -0.83300
C260        C  0.75206288  0.32107564  0.37661388     1.11900
O261        O  0.82237693  0.34804370  0.19004695    -0.96300
Zr262      Zr  0.77700918  0.34511440  0.23354968     1.88900
O263        O  0.71598413  0.38404064  0.29667349    -0.73000
O264        O  0.83788639  0.32151436  0.33181542    -0.52300
O265        O  0.82917426  0.37360935  0.25449116    -0.96900
O266        O  0.75727784  0.37787003  0.18379738    -0.54100
O267        O  0.75753999  0.39907071  0.25805627    -0.73500
C268        C  0.73503468  0.40637937  0.28109104     0.98800
O269        O  0.66022518  0.32051377  0.33993068    -0.62300
O270        O  0.65760946  0.24150388  0.18619667    -0.57100
O271        O  0.65033216  0.33524582  0.27256671    -0.93800
O272        O  0.64077331  0.30507299  0.22342994    -0.92200
O273        O  0.66142841  0.19620492  0.26491160    -0.92600
O274        O  0.67323038  0.21525691  0.32967731    -0.91400
C275        C  0.63090990  0.32506593  0.24756729     1.17700
H276        H  0.71816420  0.21469081  0.21000655     0.33600
H277        H  0.72843152  0.26544542  0.34013516     0.44500
H278        H  0.70343106  0.35433724  0.23129798     0.38000
H279        H  0.83044628  0.29806751  0.24707749     0.34500
H280        H  0.72317375  0.16575070  0.33198060     0.26300
H281        H  0.85356974  0.30795012  0.34664946     0.32200
H282        H  0.82519807  0.39829951  0.25058996     0.38100
H283        H  0.66421659  0.17122021  0.26778681     0.32600
H284        H  0.64006684  0.25440797  0.17292711     0.31500
H285        H  0.66087145  0.31634853  0.15187671     0.33100
H286        H  0.73855552  0.39266573  0.19248951     0.32100
H287        H  0.65932508  0.23638244  0.32799681     0.36100
H288        H  0.64094399  0.30779364  0.32897597     0.28800
H289        H  0.83911573  0.20435550  0.18663643     0.33100
H290        H  0.82587289  0.37268107  0.18516617     0.35900
H291        H  0.67047506  0.22856019  0.16856710     0.28500
H292        H  0.66818174  0.30472748  0.35825463     0.41400
H293        H  0.78690551  0.23102568  0.36412040     0.31500
H294        H  0.76057598  0.18023338  0.32625938     0.39100
H295        H  0.74526315  0.36091171  0.16911061     0.30900
H296        H  0.85201404  0.32764524  0.31144084     0.31000
H297        H  0.84645553  0.24272002  0.17656257     0.31200
Zr298      Zr  0.71453539  0.74317988  0.28926965     2.17500
O299        O  0.66931563  0.70119479  0.30183426    -0.51100
O300        O  0.71392901  0.75347514  0.35116616    -0.74300
O301        O  0.73648508  0.68461020  0.29744013    -0.81100
O302        O  0.64509922  0.81343008  0.26840687    -0.82800
O303        O  0.78891712  0.67629851  0.27233928    -0.78500
O304        O  0.65313471  0.75808061  0.28454366    -0.90100
O305        O  0.75524769  0.79156564  0.36763852    -0.76100
O306        O  0.77434750  0.75025236  0.30253137    -0.85600
O307        O  0.72140695  0.80248541  0.30152563    -0.85200
O308        O  0.74481155  0.72487847  0.23857599    -0.72000
O309        O  0.69579756  0.77333859  0.23883017    -0.84100
Zr310      Zr  0.79456155  0.82162737  0.21314183     2.26400
Zr311      Zr  0.80533930  0.73325422  0.25176368     2.06300
Zr312      Zr  0.70350106  0.83287898  0.25085630     2.10000
Zr313      Zr  0.78152624  0.80967042  0.31408796     1.78800
O314        O  0.66464514  0.85165780  0.20524489    -0.92900
O315        O  0.82893614  0.78605476  0.34792559    -0.40700
O316        O  0.76395179  0.83970556  0.26341545    -0.77400
O317        O  0.81385961  0.79285273  0.26444133    -0.96100
O318        O  0.78680729  0.76286195  0.20081239    -0.89400
O319        O  0.73451466  0.81582666  0.19996382    -0.92200
C320        C  0.73000743  0.77121231  0.37397968     1.01500
C321        C  0.63360443  0.78405543  0.27848780     1.14500
C322        C  0.76233634  0.66564899  0.28912598     1.05300
O323        O  0.84729919  0.71548595  0.29509642    -0.94400
O324        O  0.86329070  0.75033088  0.23163842    -0.90100
O325        O  0.85454852  0.80263900  0.20759426    -0.83300
C326        C  0.87394155  0.77717145  0.21548450     1.11900
O327        O  0.67963456  0.71444440  0.18816104    -0.96300
Zr328      Zr  0.72658258  0.75632299  0.18858885     1.88900
O329        O  0.79179056  0.81354042  0.15103484    -0.73000
O330        O  0.82269901  0.69303103  0.20742983    -0.52300
O331        O  0.74347820  0.70566640  0.15659777    -0.96900
O332        O  0.67816245  0.77923071  0.15554150    -0.54100
O333        O  0.75139869  0.77467234  0.13443602    -0.73500
C334        C  0.77595634  0.79578377  0.12810963     0.98800
O335        O  0.83305172  0.86808594  0.19524924    -0.62300
O336        O  0.68131235  0.87332955  0.29285854    -0.57100
O337        O  0.77984033  0.88178647  0.21830508    -0.93800
O338        O  0.72526394  0.89074377  0.23811370    -0.92200
O339        O  0.76452308  0.86136884  0.34429440    -0.92600
O340        O  0.82776603  0.85211101  0.31833037    -0.91400
C341        C  0.75487814  0.90143538  0.22720497     1.17700
H342        H  0.70709569  0.80960263  0.32049894     0.33600
H343        H  0.83781958  0.79792693  0.26950744     0.44500
H344        H  0.72834898  0.82990654  0.18043989     0.38000
H345        H  0.73999111  0.70109601  0.23387982     0.34500
H346        H  0.82809254  0.79846976  0.37005554     0.26300
H347        H  0.84150688  0.67955108  0.21813441     0.32200
H348        H  0.73206465  0.70804114  0.13387450     0.38100
H349        H  0.77689542  0.86031832  0.36662130     0.32600
H350        H  0.66101875  0.88385857  0.28148995     0.31500
H351        H  0.64824355  0.86720581  0.21677763     0.33100
H352        H  0.68728437  0.79983128  0.14369653     0.32100
H353        H  0.82373511  0.86787840  0.29873528     0.36100
H354        H  0.85082384  0.86983042  0.21358283     0.28800
H355        H  0.67610169  0.69006765  0.32375207     0.33100
H356        H  0.67257800  0.71226618  0.16375942     0.35900
H357        H  0.67133025  0.85925728  0.31165040     0.28500
H358        H  0.84560771  0.85958309  0.17484467     0.41400
H359        H  0.86094028  0.73635396  0.30024931     0.31500
H360        H  0.82146099  0.76249282  0.35378166     0.39100
H361        H  0.66207226  0.78819859  0.17308221     0.30900
H362        H  0.80307742  0.67676762  0.20537038     0.31000
H363        H  0.67154913  0.68326878  0.28407487     0.31200
C364        C  0.24420573  0.26168911  0.03607140     0.03400
C365        C  0.25845041  0.27147804  0.00374731    -0.12800
C366        C  0.24134443  0.26258898  0.97251314     0.00900
C367        C  0.20902530  0.24564094  0.97455217    -0.13100
C368        C  0.19509858  0.23558745  0.00614559     0.03300
C369        C  0.21222454  0.24441047  0.03644757    -0.10700
H370        H  0.28296962  0.28500312  0.00287831     0.08900
H371        H  0.19461846  0.23943303  0.95149735     0.06500
H372        H  0.20000064  0.23774077  0.06064942     0.06300
Zr373      Zr  0.21207362  0.24989131  0.79259660     2.17500
O374        O  0.17367716  0.23045331  0.83868361    -0.51100
O375        O  0.21583443  0.18866299  0.78238813    -0.74300
O376        O  0.15126953  0.24743557  0.77559892    -0.81100
O377        O  0.28031332  0.27682741  0.86241249    -0.82800
O378        O  0.14192202  0.26693776  0.72123441    -0.78500
O379        O  0.22935085  0.24890129  0.85299737    -0.90100
O380        O  0.26112881  0.17458096  0.74837659    -0.76100
O381        O  0.22098898  0.23702122  0.73365203    -0.85600
O382        O  0.27270535  0.24037082  0.78746938    -0.85200
O383        O  0.19142719  0.29991511  0.76289129    -0.72000
O384        O  0.23993601  0.30149900  0.81136396    -0.84100
Zr385      Zr  0.28812619  0.32965629  0.71324099     2.26400
Zr386      Zr  0.20007265  0.28633548  0.70309464     2.06300
Zr387      Zr  0.30083435  0.29264750  0.80432672     2.10000
Zr388      Zr  0.28205661  0.22906148  0.72807441     1.78800
O389        O  0.31894102  0.33860478  0.84250279    -0.92900
O390        O  0.26777779  0.19445872  0.67801745    -0.40700
O391        O  0.30982855  0.28112807  0.74434966    -0.77400
O392        O  0.26122779  0.27698803  0.69582425    -0.96100
O393        O  0.22783558  0.33886055  0.72031877    -0.89400
O394        O  0.28124545  0.34187549  0.77284141    -0.92200
C395        C  0.23507771  0.16689210  0.76706674     1.01500
C396        C  0.25349519  0.26003668  0.87290586     1.14500
C397        C  0.13125509  0.25449799  0.75010355     1.05300
O398        O  0.18321905  0.23941384  0.66566014    -0.94400
O399        O  0.21716839  0.30478759  0.64499148    -0.90100
O400        O  0.26724995  0.33450653  0.65362131    -0.83300
C401        C  0.24273587  0.32310159  0.63415245     1.11900
O402        O  0.17773493  0.35307250  0.82580493    -0.96300
Zr403      Zr  0.22082000  0.35071437  0.78012015     1.88900
O404        O  0.28353338  0.39131740  0.72102822    -0.73000
O405        O  0.15846154  0.32707865  0.68027638    -0.52300
O406        O  0.16887259  0.37882333  0.75867777    -0.96900
O407        O  0.24110422  0.38425393  0.82903234    -0.54100
O408        O  0.24006409  0.40494967  0.75762312    -0.73500
C409        C  0.26463389  0.41290922  0.73712915     0.98800
O410        O  0.32690126  0.34244882  0.66526766    -0.62300
O411        O  0.34347886  0.25216211  0.82582999    -0.57100
O412        O  0.34885588  0.33337077  0.73081746    -0.93800
O413        O  0.35855119  0.30963419  0.78354599    -0.92200
O414        O  0.33272200  0.20240225  0.75411864    -0.92600
O415        O  0.32841208  0.22679333  0.68573163    -0.91400
C416        C  0.36889099  0.32465011  0.75581052     1.17700
H417        H  0.27993277  0.22144501  0.80179136     0.33600
H418        H  0.26661604  0.27202858  0.67214520     0.44500
H419        H  0.29470675  0.36164605  0.77944325     0.38000
H420        H  0.16761700  0.30524857  0.76777159     0.34500
H421        H  0.27974262  0.17245753  0.68192119     0.26300
H422        H  0.14267251  0.31321074  0.66580488     0.32200
H423        H  0.17127109  0.40297742  0.76583392     0.38100
H424        H  0.33097396  0.17794527  0.74787247     0.32600
H425        H  0.35783296  0.26550500  0.84214272     0.31500
H426        H  0.34001248  0.32986480  0.85401132     0.33100
H427        H  0.26396432  0.39356729  0.82218124     0.32100
H428        H  0.33821725  0.25022881  0.68525987     0.36100
H429        H  0.33947641  0.36359391  0.67174153     0.28800
H430        H  0.16018393  0.21106189  0.82919376     0.33100
H431        H  0.17234588  0.37761384  0.82860162     0.35900
H432        H  0.33037674  0.23595004  0.84054636     0.28500
H433        H  0.34459091  0.32422920  0.66548517     0.41400
H434        H  0.20499608  0.23254818  0.65429911     0.31500
H435        H  0.24290613  0.18886274  0.68073641     0.39100
H436        H  0.24646629  0.36711614  0.84706444     0.30900
H437        H  0.14428371  0.33370559  0.70035160     0.31000
H438        H  0.15665834  0.24900267  0.84193456     0.31200
Zr439      Zr  0.21011128  0.82929955  0.79340831     2.17500
O440        O  0.16506885  0.85651516  0.82759152    -0.51100
O441        O  0.21230932  0.89042746  0.78081304    -0.74300
O442        O  0.22591741  0.83335254  0.85402646    -0.81100
O443        O  0.14208884  0.79822914  0.72602011    -0.82800
O444        O  0.28063286  0.81497255  0.86452651    -0.78500
O445        O  0.14999710  0.81514978  0.78138419    -0.90100
O446        O  0.25667199  0.90513619  0.74544819    -0.76100
O447        O  0.26988472  0.84257221  0.78744005    -0.85600
O448        O  0.21833181  0.83943704  0.73352761    -0.85200
O449        O  0.23937414  0.77978236  0.81589544    -0.72000
O450        O  0.19295845  0.77754902  0.76554512    -0.84100
Zr451      Zr  0.29210086  0.75067802  0.72126302     2.26400
Zr452      Zr  0.29972212  0.79320253  0.80883987     2.06300
Zr453      Zr  0.20137065  0.78749014  0.70552327     2.10000
Zr454      Zr  0.27883658  0.85081467  0.72718413     1.78800
O455        O  0.16422753  0.74397370  0.67995908    -0.92900
O456        O  0.32992801  0.88249682  0.74587619    -0.40700
O457        O  0.26201873  0.79928407  0.69939534    -0.77400
O458        O  0.31040396  0.80271554  0.74849366    -0.96100
O459        O  0.28311809  0.74102772  0.78085774    -0.89400
O460        O  0.23191727  0.73793841  0.72632648    -0.92200
C461        C  0.23093508  0.91245986  0.76458402     1.01500
C462        C  0.13063688  0.80654539  0.75592939     1.14500
C463        C  0.25158178  0.82744164  0.87422682     1.05300
O464        O  0.34120750  0.83697283  0.82608869    -0.94400
O465        O  0.35714559  0.77172789  0.79572575    -0.90100
O466        O  0.35074211  0.74529689  0.74407000    -0.83300
C467        C  0.36870066  0.75435908  0.77035322     1.11900
O468        O  0.17848579  0.72635441  0.83083572    -0.96300
Zr469      Zr  0.22303137  0.72865229  0.78643539     1.88900
O470        O  0.28668804  0.68918313  0.72830054    -0.73000
O471        O  0.31753235  0.75199808  0.85242037    -0.52300
O472        O  0.24645108  0.69988176  0.83711276    -0.96900
O473        O  0.17135137  0.69771830  0.76793369    -0.54100
O474        O  0.24460641  0.67453599  0.76633998    -0.73500
C475        C  0.26874835  0.66718252  0.74523140     0.98800
O476        O  0.33397095  0.73226270  0.67822969    -0.62300
O477        O  0.18057237  0.83283089  0.66755568    -0.57100
O478        O  0.27899118  0.75479935  0.65999961    -0.93800
O479        O  0.22403871  0.77247926  0.64892077    -0.92200
O480        O  0.25782134  0.87507789  0.67325802    -0.92600
O481        O  0.32360089  0.85634546  0.68339574    -0.91400
C482        C  0.25401181  0.76212841  0.63934317     1.17700
H483        H  0.20440650  0.85817940  0.72522802     0.33600
H484        H  0.33455552  0.80751335  0.74420073     0.44500
H485        H  0.22567575  0.71811592  0.71291462     0.38000
H486        H  0.23377665  0.77481996  0.83956751     0.34500
H487        H  0.32838012  0.90487216  0.73398690     0.26300
H488        H  0.33173079  0.76539270  0.86882816     0.32200
H489        H  0.23698966  0.67633472  0.83622497     0.38100
H490        H  0.26464066  0.89948614  0.67407072     0.32600
H491        H  0.17275253  0.82095587  0.64646380     0.31500
H492        H  0.14927313  0.75671776  0.66370211     0.33100
H493        H  0.17583287  0.67348604  0.77375410     0.32100
H494        H  0.33305689  0.83301331  0.68099101     0.36100
H495        H  0.35273777  0.74961536  0.67841588     0.28800
H496        H  0.17628122  0.87646440  0.83867650     0.33100
H497        H  0.17672003  0.70204456  0.83782632     0.35900
H498        H  0.15899942  0.84127158  0.67819214     0.28500
H499        H  0.34461038  0.71120632  0.68760725     0.41400
H500        H  0.32741419  0.85809078  0.82829748     0.31500
H501        H  0.32552639  0.88777322  0.77036135     0.39100
H502        H  0.17194609  0.69858526  0.74247557     0.30900
H503        H  0.29609693  0.74638363  0.86522948     0.31000
H504        H  0.15990873  0.84048957  0.84673126     0.31200
Zr505      Zr  0.78977980  0.25489799  0.79796193     2.17500
O506        O  0.83535723  0.23222558  0.83503443    -0.51100
O507        O  0.78442911  0.19254622  0.79204430    -0.74300
O508        O  0.77246724  0.25353949  0.85849277    -0.81100
O509        O  0.85824836  0.28207537  0.72712611    -0.82800
O510        O  0.71801100  0.27293695  0.86829096    -0.78500
O511        O  0.85069935  0.26450622  0.78251881    -0.90100
O512        O  0.74561060  0.17701681  0.75114293    -0.76100
O513        O  0.72989985  0.24184323  0.79188528    -0.85600
O514        O  0.78237106  0.24319900  0.73829701    -0.85200
O515        O  0.76025462  0.30547212  0.81769316    -0.72000
O516        O  0.80739143  0.30564609  0.76787815    -0.84100
Zr517      Zr  0.70906790  0.33206480  0.72123215     2.26400
Zr518      Zr  0.69960837  0.29200476  0.81059239     2.06300
Zr519      Zr  0.79914450  0.29446084  0.70783807     2.10000
Zr520      Zr  0.72208658  0.23116315  0.73196255     1.78800
O521        O  0.83540896  0.34125250  0.68709831    -0.92900
O522        O  0.67273508  0.19749277  0.75194238    -0.40700
O523        O  0.73874462  0.28203760  0.70198099    -0.77400
O524        O  0.69050630  0.28054172  0.75039340    -0.96100
O525        O  0.71709749  0.34338690  0.78074631    -0.89400
O526        O  0.76910627  0.34474930  0.72649100    -0.92200
C527        C  0.76800965  0.16991388  0.77431862     1.01500
C528        C  0.86997588  0.27277179  0.75668275     1.14500
C529        C  0.74698921  0.26033419  0.87857344     1.05300
O530        O  0.66070557  0.24552344  0.82666569    -0.94400
O531        O  0.64145112  0.31114640  0.79414891    -0.90100
O532        O  0.64971739  0.33715204  0.74236852    -0.83300
C533        C  0.63051009  0.32783092  0.76773611     1.11900
O534        O  0.82390548  0.35907104  0.82874773    -0.96300
Zr535      Zr  0.77735697  0.35559879  0.78638696     1.88900
O536        O  0.71832717  0.39409546  0.72327439    -0.73000
O537        O  0.67635926  0.33318810  0.85124126    -0.52300
O538        O  0.75777136  0.38465928  0.83811444    -0.96900
O539        O  0.82679840  0.38786904  0.76412663    -0.54100
O540        O  0.75400195  0.40968304  0.76691204    -0.73500
C541        C  0.73375544  0.41671354  0.74182726     0.98800
O542        O  0.66880288  0.35364268  0.67790885    -0.62300
O543        O  0.82378664  0.25303896  0.66822202    -0.57100
O544        O  0.72046911  0.32271903  0.66011783    -0.93800
O545        O  0.77582239  0.30609537  0.64988410    -0.92200
O546        O  0.74170712  0.20230222  0.68019743    -0.92600
O547        O  0.67706441  0.22711050  0.68823370    -0.91400
C548        C  0.74535570  0.31479117  0.63966161     1.17700
H549        H  0.79633068  0.22412110  0.73128024     0.33600
H550        H  0.66649256  0.27543453  0.74564450     0.44500
H551        H  0.77568224  0.36410399  0.71242183     0.38000
H552        H  0.76562964  0.31126618  0.84121411     0.34500
H553        H  0.67564647  0.17479826  0.74117475     0.26300
H554        H  0.66144939  0.31949634  0.86683905     0.32200
H555        H  0.76713712  0.40819294  0.83615117     0.38100
H556        H  0.73371591  0.17834621  0.68289482     0.32600
H557        H  0.84388628  0.26497610  0.65779074     0.31500
H558        H  0.84759974  0.33178168  0.66691901     0.33100
H559        H  0.81799944  0.40058794  0.74387358     0.32100
H560        H  0.67253442  0.25108214  0.68139241     0.36100
H561        H  0.64955715  0.33684674  0.67686193     0.28800
H562        H  0.82495482  0.21227044  0.84699786     0.33100
H563        H  0.82939356  0.38370902  0.83103450     0.35900
H564        H  0.83416380  0.23507358  0.68292419     0.28500
H565        H  0.65852975  0.37452696  0.68783361     0.41400
H566        H  0.64450609  0.24339766  0.80700299     0.31500
H567        H  0.67726203  0.19343506  0.77670430     0.39100
H568        H  0.84225936  0.37034403  0.75431082     0.30900
H569        H  0.69634834  0.34013892  0.86562364     0.31000
H570        H  0.83893914  0.24950377  0.85325977     0.31200
Zr571      Zr  0.78516924  0.83680166  0.78777605     2.17500
O572        O  0.79452508  0.88455558  0.82708824    -0.51100
O573        O  0.84825140  0.83606076  0.78208149    -0.74300
O574        O  0.78902567  0.82014548  0.84818134    -0.81100
O575        O  0.76002268  0.90025825  0.71492049    -0.82800
O576        O  0.76915260  0.76642783  0.85931133    -0.78500
O577        O  0.78670850  0.89567106  0.76700117    -0.90100
O578        O  0.86607431  0.79595085  0.74414078    -0.76100
O579        O  0.80045204  0.77806048  0.78469267    -0.85600
O580        O  0.79818988  0.82747660  0.72885796    -0.85200
O581        O  0.73469724  0.80606838  0.80742956    -0.72000
O582        O  0.73354727  0.85174688  0.75677322    -0.84100
Zr583      Zr  0.71175062  0.75056662  0.71310846     2.26400
Zr584      Zr  0.74991045  0.74644355  0.80303496     2.06300
Zr585      Zr  0.74646188  0.84128506  0.69746374     2.10000
Zr586      Zr  0.81290378  0.76854222  0.72544936     1.78800
O587        O  0.69929782  0.87420586  0.67243684    -0.92900
O588        O  0.84678379  0.72229828  0.75046946    -0.40700
O589        O  0.76157717  0.78208292  0.69408561    -0.77400
O590        O  0.76368665  0.73558248  0.74382416    -0.96100
O591        O  0.69823091  0.76028552  0.77169662    -0.89400
O592        O  0.69634917  0.80940205  0.71574061    -0.92200
C593        C  0.87192428  0.82034070  0.76525223     1.01500
C594        C  0.77610082  0.91305257  0.74094359     1.14500
C595        C  0.78190183  0.79526480  0.86871132     1.05300
O596        O  0.79218488  0.70550671  0.82440221    -0.94400
O597        O  0.73137302  0.68787621  0.78944899    -0.90100
O598        O  0.70848073  0.69215353  0.73569825    -0.83300
C599        C  0.71651335  0.67499585  0.76279827     1.11900
O600        O  0.67514543  0.86691434  0.81443907    -0.96300
Zr601      Zr  0.68392075  0.81944809  0.77495018     1.88900
O602        O  0.64858402  0.75537962  0.71460744    -0.73000
O603        O  0.70515580  0.73123791  0.84453626    -0.52300
O604        O  0.65405919  0.79973817  0.82668570    -0.96900
O605        O  0.64954634  0.86526007  0.74944950    -0.54100
O606        O  0.63138420  0.79134970  0.75675899    -0.73500
C607        C  0.62520137  0.76959957  0.73309258     0.98800
O608        O  0.69304497  0.70901691  0.67009170    -0.62300
O609        O  0.78799607  0.86636052  0.65728283    -0.57100
O610        O  0.72221565  0.76022416  0.65229443    -0.93800
O611        O  0.73634151  0.81561339  0.64069566    -0.92200
O612        O  0.84094916  0.78753193  0.67251692    -0.92600
O613        O  0.82147728  0.72176972  0.68523814    -0.91400
C614        C  0.72903766  0.78485699  0.63140890     1.17700
H615        H  0.81712062  0.84188408  0.72134033     0.33600
H616        H  0.76974774  0.71195109  0.74036063     0.44500
H617        H  0.67689104  0.81413877  0.70087474     0.38000
H618        H  0.72887447  0.81192778  0.83080986     0.34500
H619        H  0.87007775  0.72482127  0.74014540     0.26300
H620        H  0.71703910  0.71664526  0.86170871     0.32200
H621        H  0.62967469  0.80684926  0.82368203     0.38100
H622        H  0.86485194  0.77864350  0.67403919     0.32600
H623        H  0.77542063  0.88546311  0.64619876     0.31500
H624        H  0.70744121  0.88041441  0.64906568     0.33100
H625        H  0.62590569  0.86180217  0.75867663     0.32100
H626        H  0.79894133  0.71929801  0.67329504     0.36100
H627        H  0.71115271  0.69120615  0.66968390     0.28800
H628        H  0.81650496  0.87967116  0.83927090     0.33100
H629        H  0.64999279  0.86733918  0.81929072     0.35900
H630        H  0.80587865  0.87764702  0.67162658     0.28500
H631        H  0.67233631  0.69752659  0.67984358     0.41400
H632        H  0.81313149  0.71927460  0.82951395     0.31500
H633        H  0.85004631  0.72874640  0.77487035     0.39100
H634        H  0.64738043  0.85977364  0.72471086     0.30900
H635        H  0.70022510  0.75270239  0.85695700     0.31000
H636        H  0.77626578  0.88279361  0.84488227     0.31200
C637        C  0.52752608  0.74895447  0.74259659     0.03400
C638        C  0.52403308  0.71982361  0.72184198    -0.12800
C639        C  0.49149175  0.70754470  0.71256839     0.00900
C640        C  0.46193941  0.72227482  0.72627159    -0.11300
C641        C  0.46443802  0.74905778  0.75009416     0.03300
C642        C  0.49741638  0.76314748  0.75744380    -0.10700
H643        H  0.54647972  0.70706110  0.71153894     0.08900
H644        H  0.43686709  0.71298808  0.71777816     0.06500
H645        H  0.49959000  0.78502026  0.77431397     0.06300
C646        C  0.25836533  0.50953727  0.72194325     0.03400
C647        C  0.24987579  0.54033613  0.73877155    -0.12800
C648        C  0.26156904  0.57192925  0.72511426     0.00900
C649        C  0.28092787  0.57205870  0.69449146    -0.11300
C650        C  0.28973385  0.54174396  0.67851398     0.03300
C651        C  0.27651087  0.51108008  0.69075116    -0.10700
H652        H  0.23571635  0.53964902  0.76280745     0.08900
H653        H  0.29010052  0.59565945  0.68297498     0.06500
H654        H  0.28262584  0.48798228  0.67683416     0.06300
C655        C  0.53280485  0.32327603  0.75026863     0.03400
C656        C  0.53415797  0.33873919  0.71754828    -0.12800
C657        C  0.50412180  0.34644921  0.69924689     0.00900
C658        C  0.47197742  0.33730139  0.71285315    -0.11300
C659        C  0.46907029  0.32219481  0.74576586     0.03300
C660        C  0.49994491  0.31431043  0.76406944    -0.10700
H661        H  0.55883603  0.34501606  0.70584533     0.08900
H662        H  0.44916733  0.34281100  0.69766962     0.06500
H663        H  0.49837832  0.30225578  0.78916713     0.06300
C664        C  0.71646519  0.51452291  0.74440674     0.03400
C665        C  0.68814481  0.51577071  0.72181573    -0.12800
C666        C  0.67565690  0.54664632  0.70942149     0.00900
C667        C  0.68902204  0.57729791  0.72188812    -0.11300
C668        C  0.71461398  0.57758550  0.74773356     0.03300
C669        C  0.72923868  0.54583175  0.75814866    -0.10700
H670        H  0.67587394  0.49260732  0.71268281     0.08900
H671        H  0.67942917  0.60094021  0.71097252     0.06500
H672        H  0.75025375  0.54550529  0.77662155     0.06300
C673        C  0.53132857  0.33481208  0.25266362     0.03400
C674        C  0.53111800  0.35607054  0.28172584    -0.12800
C675        C  0.50075419  0.37051063  0.29352416     0.00900
C676        C  0.46960364  0.36341350  0.27730241    -0.11300
C677        C  0.46734842  0.33896343  0.25098781     0.03300
C678        C  0.49882930  0.32521289  0.23789042    -0.10700
H679        H  0.55451563  0.36105359  0.29626994     0.08900
H680        H  0.44698276  0.37704386  0.28603182     0.06500
H681        H  0.49803653  0.30713362  0.21688862     0.06300
C682        C  0.73243839  0.50657350  0.28678559     0.03400
C683        C  0.75240528  0.53617360  0.27803126    -0.12800
C684        C  0.74359070  0.56890633  0.29137564     0.00900
C685        C  0.71481857  0.57113298  0.31327898    -0.11300
C686        C  0.69492464  0.54259819  0.32132028     0.03300
C687        C  0.70267017  0.51106222  0.30700815    -0.10700
H688        H  0.77465509  0.53372781  0.26133316     0.08900
H689        H  0.70628921  0.59544786  0.32321737     0.06500
H690        H  0.68524538  0.49004409  0.31247782     0.06300
C691        C  0.53498067  0.78879513  0.30243904     0.03400
C692        C  0.53473691  0.76151179  0.32612528    -0.12800
C693        C  0.50386462  0.74692486  0.33743560     0.00900
C694        C  0.47236142  0.76060068  0.32709220    -0.11300
C695        C  0.47065559  0.79005122  0.30632112     0.03300
C696        C  0.50252398  0.80387884  0.29338939    -0.10700
H697        H  0.55875922  0.75070778  0.33545035     0.08900
H698        H  0.44917028  0.74732630  0.33525223     0.06500
H699        H  0.50201822  0.82554983  0.27598154     0.06300
C700        C  0.26395232  0.51329744  0.27993474     0.03400
C701        C  0.28999801  0.51527487  0.30508490    -0.12800
C702        C  0.30499518  0.54624741  0.31401284     0.00900
C703        C  0.29254374  0.57643901  0.30011646    -0.11300
C704        C  0.26308035  0.57642627  0.27879010     0.03300
C705        C  0.24954968  0.54443983  0.26744950    -0.10700
H706        H  0.29910370  0.49268635  0.31835028     0.08900
H707        H  0.30528469  0.60011920  0.30723585     0.06500
H708        H  0.22798626  0.54380489  0.24961893     0.06300
C709        C  0.71890827  0.76972453  0.47288185     0.03400
C710        C  0.69532309  0.74243595  0.47654904    -0.12800
C711        C  0.67803581  0.73667546  0.50738074     0.00900
C712        C  0.68558673  0.75687300  0.53574806    -0.11300
C713        C  0.71235193  0.78129752  0.53444132     0.03300
C714        C  0.72832193  0.78862795  0.50250542    -0.10700
H715        H  0.69006211  0.72520232  0.45546868     0.08900
H716        H  0.67215332  0.75184926  0.55974658     0.06500
H717        H  0.74820860  0.80819048  0.50088779     0.06300
C718        C  0.74284376  0.32485170  0.47599670     0.03400
C719        C  0.71243806  0.34444121  0.47681607    -0.12800
C720        C  0.69955355  0.35707385  0.50754274     0.00900
C721        C  0.71563788  0.34877256  0.53843491    -0.11300
C722        C  0.74358790  0.32596208  0.53975618     0.03300
C723        C  0.75794680  0.31467297  0.50799131    -0.10700
H724        H  0.69854022  0.35057328  0.45341348     0.08900
H725        H  0.70581536  0.36037341  0.56166366     0.06500
H726        H  0.78041005  0.29825132  0.50815742     0.06300
C727        C  0.26102646  0.75490923  0.47873287     0.03400
C728        C  0.24385296  0.76424368  0.50959068    -0.12800
C729        C  0.25247376  0.74776796  0.54108672     0.00900
C730        C  0.27557992  0.72015955  0.54041215    -0.11300
C731        C  0.29474397  0.71338661  0.51113500     0.03300
C732        C  0.28827123  0.73135856  0.48100241    -0.10700
H733        H  0.22483789  0.78446791  0.50925036     0.08900
H734        H  0.28084726  0.70548229  0.56354769     0.06500
H735        H  0.30505360  0.72660708  0.45932677     0.06300
C736        C  0.25444048  0.31745652  0.47114023     0.03400
C737        C  0.28680220  0.33429531  0.47133656    -0.12800
C738        C  0.30210745  0.34498654  0.50197821     0.00900
C739        C  0.28657648  0.33666319  0.53330033    -0.11300
C740        C  0.25464221  0.31931209  0.53487152     0.03300
C741        C  0.23884681  0.30904239  0.50335363    -0.10700
H742        H  0.29990403  0.34029962  0.44743410     0.08900
H743        H  0.29999819  0.34397002  0.55663841     0.06500
H744        H  0.21427728  0.29559793  0.50385748     0.06300
O745        O  0.91045818  0.97988581  0.99689727    -0.86300
O746        O  0.10459506  0.99846371  0.00590503    -0.86400
O747        O  0.01289158  0.94910086  0.94524009    -0.88100
O748        O  0.00707909  0.94550412  0.05668175    -0.86900
O749        O  0.00123423  0.98497223  0.09983474    -0.86400
O750        O  0.01242998  0.99195874  0.90477298    -0.87800
O751        O  0.06716149  0.95278274  0.00392483    -0.86300
O752        O  0.95583287  0.94234142  0.99709820    -0.85900
Zr753      Zr  0.00866320  0.97513461  0.00176079     2.84300
O754        O  0.03809891  0.01102402  0.03958333    -1.07900
O755        O  0.97290644  0.00696997  0.96558608    -1.08600
C756        C  0.92336517  0.94960401  0.99627575     1.06800
C757        C  0.09775604  0.96623631  0.00472389     1.06800
C758        C  0.01394586  0.96026445  0.91392350     1.09800
C759        C  0.00399760  0.95410695  0.08854359     1.07500
H760        H  0.05846177  0.00096856  0.95648015     0.33100
O761        O  0.04216368  0.01352679  0.97025634    -1.28800
H762        H  0.95437571  0.98861113  0.04843521     0.32800
O763        O  0.96845833  0.00441365  0.03529553    -1.30500
O764        O  0.09452080  0.10722087  0.01060398    -0.86300
O765        O  0.90002002  0.08885907  0.00005218    -0.87800
O766        O  0.06455103  0.04901805  0.91061937    -0.86300
O767        O  0.05212518  0.04084084  0.10423292    -0.86400
O768        O  0.94043268  0.03676436  0.09678840    -0.86100
O769        O  0.95313492  0.04013183  0.90278272    -0.85900
O770        O  0.99507100  0.14229064  0.94827640    -0.86300
O771        O  0.99175782  0.13848930  0.06149483    -0.85700
O772        O  0.00120992  0.10077046  0.90705971    -0.86800
O773        O  0.99049662  0.09476716  0.10127827    -0.86000
O774        O  0.10341822  0.05255619  0.95521862    -0.86400
O775        O  0.90886835  0.03417512  0.94161911    -0.86100
O776        O  0.90140597  0.03423298  0.05233766    -0.85700
O777        O  0.09616917  0.04450934  0.06490649    -0.86100
O778        O  0.05070901  0.14622048  0.00484485    -0.86400
O779        O  0.93701802  0.13468598  0.00535965    -0.87800
Zr780      Zr  0.07082118  0.05010944  0.00800747     2.83100
Zr781      Zr  0.93375746  0.03723990  0.99897646     2.83500
Zr782      Zr  0.00662446  0.04585209  0.93468661     2.84100
Zr783      Zr  0.99815430  0.04100309  0.07228236     2.83400
Zr784      Zr  0.99649438  0.11321480  0.00441852     2.84200
O785        O  0.96331265  0.07382564  0.03602457    -1.08300
O786        O  0.03644763  0.08301730  0.97124653    -1.07800
C787        C  0.08295149  0.13796067  0.00811906     1.06800
C788        C  0.90647666  0.12102549  0.00321969     1.09400
C789        C  0.09552040  0.05055217  0.92309748     1.07000
C790        C  0.08439917  0.04106419  0.09579322     1.07300
C791        C  0.90938122  0.03488288  0.08457084     1.06900
C792        C  0.92101574  0.03591739  0.91073146     1.06500
C793        C  0.99688889  0.13185698  0.91675644     1.06900
C794        C  0.98950183  0.12653573  0.09250083     1.06400
H795        H  0.95137465  0.08933853  0.95233588     0.33100
O796        O  0.96656962  0.07641733  0.96719038    -1.29400
H797        H  0.04449202  0.09535702  0.05711280     0.33100
O798        O  0.03187034  0.08074076  0.04145133    -1.30800
O799        O  0.49019740  0.62575335  0.57060960    -0.86300
O800        O  0.49997020  0.43344305  0.55432003    -0.86400
O801        O  0.43573278  0.52945401  0.59933375    -0.88100
O802        O  0.54857798  0.53189474  0.60474213    -0.86900
O803        O  0.59259719  0.53797923  0.56555961    -0.86400
O804        O  0.39634070  0.52890286  0.55508932    -0.87800
O805        O  0.49821860  0.47244889  0.59826073    -0.86300
O806        O  0.49211473  0.58052936  0.60835989    -0.85900
Zr807      Zr  0.49386420  0.52922670  0.57442961     2.84300
O808        O  0.53137789  0.49900640  0.53888572    -1.07900
O809        O  0.45907747  0.56512035  0.54178210    -1.08600
C810        C  0.49048014  0.61261765  0.60118300     1.06800
C811        C  0.50044752  0.44179812  0.58653194     1.06800
C812        C  0.40455173  0.52947504  0.58710981     1.09800
C813        C  0.58070288  0.53567357  0.59654442     1.07500
H814        H  0.44705440  0.48015329  0.54947320     0.33100
O815        O  0.46151071  0.49579070  0.53655354    -1.28800
H816        H  0.54232779  0.58192385  0.56081820     0.32800
O817        O  0.52905964  0.56812478  0.54496416    -1.30500
O818        O  0.49955119  0.44451418  0.44144969    -0.86300
O819        O  0.49755550  0.63782286  0.46032903    -0.87800
O820        O  0.40152873  0.47602120  0.49925828    -0.86300
O821        O  0.59500779  0.48320453  0.50787671    -0.86400
O822        O  0.59243852  0.59447679  0.51196626    -0.86100
O823        O  0.39732840  0.58565235  0.50691658    -0.85900
O824        O  0.44446170  0.54308473  0.40592029    -0.86300
O825        O  0.55561028  0.54555056  0.41107661    -0.85700
O826        O  0.40206211  0.53531246  0.44634372    -0.86800
O827        O  0.59632751  0.54326638  0.45408520    -0.86000
O828        O  0.44395148  0.43531974  0.49684544    -0.86400
O829        O  0.43706836  0.62910516  0.51241109    -0.86100
O830        O  0.54881152  0.63377985  0.51574795    -0.85700
O831        O  0.55542126  0.43995544  0.49988527    -0.86100
O832        O  0.50150881  0.49019492  0.40406866    -0.86400
O833        O  0.49934627  0.60064034  0.41481404    -0.87800
Zr834      Zr  0.49879997  0.46616506  0.50019538     2.83100
Zr835      Zr  0.49405083  0.60376032  0.51219477     2.83500
Zr836      Zr  0.42814281  0.53217157  0.50249113     2.84100
Zr837      Zr  0.56598759  0.53805765  0.50871681     2.83400
Zr838      Zr  0.49902957  0.54220601  0.43714013     2.84200
O839        O  0.53157809  0.57452264  0.47579617    -1.08300
O840        O  0.46453529  0.50219591  0.46622373    -1.07800
C841        C  0.50090938  0.45796503  0.41103115     1.06800
C842        C  0.49926693  0.63091604  0.42799261     1.09400
C843        C  0.41201895  0.44481248  0.49778315     1.07000
C844        C  0.58646247  0.45146986  0.50420929     1.07300
C845        C  0.58097619  0.62531491  0.51439792     1.06900
C846        C  0.40587767  0.61735934  0.51033797     1.06500
C847        C  0.41255492  0.53983868  0.41523154     1.06900
C848        C  0.58704865  0.54519179  0.42217825     1.06400
H849        H  0.44712166  0.58711301  0.45902388     0.33100
O850        O  0.46158324  0.57215220  0.47262158    -1.29400
H851        H  0.54908171  0.49295156  0.45501429     0.33100
O852        O  0.53365896  0.50533513  0.46992827    -1.30800
C853        C  0.32859001  0.40000567  0.51926217    -0.13100
C854        C  0.33162222  0.36912860  0.50139760     0.09000
C855        C  0.36172129  0.36279256  0.48222100    -0.13100
C856        C  0.38853234  0.38709751  0.48130144    -0.13100
C857        C  0.38495756  0.41825396  0.49876893     0.09000
C858        C  0.35482846  0.42436225  0.51779390    -0.13100
H859        H  0.30543422  0.40562852  0.53382457     0.13000
H860        H  0.36445021  0.33913662  0.46814747     0.13000
H861        H  0.41160739  0.38193224  0.46644955     0.13000
H862        H  0.35160602  0.44802421  0.53178188     0.13000
C863        C  0.35652852  0.69951016  0.50220340    -0.13100
C864        C  0.32331005  0.68900205  0.51233353     0.09000
C865        C  0.31739942  0.65515024  0.52261684    -0.13100
C866        C  0.34439556  0.63174735  0.52203689    -0.13100
C867        C  0.37766043  0.64214520  0.51165548     0.09000
C868        C  0.38360977  0.67627718  0.50203900    -0.13100
H869        H  0.36142211  0.72570358  0.49436648     0.13000
H870        H  0.29179878  0.64674359  0.53036917     0.13000
H871        H  0.33928487  0.60557112  0.52976659     0.13000
H872        H  0.40899325  0.68485103  0.49377527     0.13000
C873        C  0.63891205  0.37144637  0.49073737    -0.13100
C874        C  0.66992044  0.38041964  0.50734542     0.09000
C875        C  0.67294523  0.41219863  0.52351271    -0.13100
C876        C  0.64564126  0.43511993  0.52250315    -0.13100
C877        C  0.61469464  0.42653198  0.50556421     0.09000
C878        C  0.61127953  0.39428656  0.49009971    -0.13100
H879        H  0.63613664  0.34681341  0.47838858     0.13000
H880        H  0.69673697  0.41953155  0.53637718     0.13000
H881        H  0.64876961  0.45960640  0.53505713     0.13000
H882        H  0.58759515  0.38703015  0.47700516     0.13000
C883        C  0.66362208  0.67513832  0.50080370    -0.13100
C884        C  0.65347875  0.70807566  0.51042846     0.09000
C885        C  0.61997519  0.71351021  0.52287902    -0.13100
C886        C  0.59655253  0.68637643  0.52489174    -0.13100
C887        C  0.60647510  0.65337200  0.51479902     0.09000
C888        C  0.64039175  0.64791359  0.50321451    -0.13100
H889        H  0.68957600  0.67052137  0.49146094     0.13000
H890        H  0.61178914  0.73883949  0.53037570     0.13000
H891        H  0.57060314  0.69131200  0.53405524     0.13000
H892        H  0.64873408  0.62281448  0.49516611     0.13000
C893        C  0.32514761  0.53458905  0.37295442    -0.13100
C894        C  0.33246077  0.54668231  0.33986365     0.09000
C895        C  0.36616578  0.55686665  0.33119833    -0.13100
C896        C  0.39267397  0.55426715  0.35552693    -0.13100
C897        C  0.38542661  0.54187644  0.38877394     0.09000
C898        C  0.35134477  0.53229082  0.39725470    -0.13100
H899        H  0.29913340  0.52664505  0.37982858     0.13000
H900        H  0.37199667  0.56606020  0.30550518     0.13000
H901        H  0.41864235  0.56208139  0.34842144     0.13000
H902        H  0.34484309  0.52268331  0.42263143     0.13000
C903        C  0.51968470  0.68973662  0.41393010    -0.13100
C904        C  0.50144929  0.66010586  0.40430003     0.09000
C905        C  0.48513380  0.65872604  0.37207897    -0.13100
C906        C  0.48626672  0.68695752  0.35011347    -0.13100
C907        C  0.50424623  0.71663082  0.35987523     0.09000
C908        C  0.52138614  0.71772154  0.39165458    -0.13100
H909        H  0.53272763  0.69115130  0.43859770     0.13000
H910        H  0.47087659  0.63613010  0.36426300     0.13000
H911        H  0.47303615  0.68574952  0.32553827     0.13000
H912        H  0.53530618  0.74050672  0.39951701     0.13000
C913        C  0.67383148  0.55740447  0.37957532    -0.13100
C914        C  0.66674331  0.54540889  0.34632121     0.09000
C915        C  0.63332599  0.53436667  0.33779072    -0.13100
C916        C  0.60724670  0.53494012  0.36242341    -0.13100
C917        C  0.61439271  0.54619732  0.39602515     0.09000
C918        C  0.64787725  0.55750548  0.40441692    -0.13100
H919        H  0.69969354  0.56576231  0.38651759     0.13000
H920        H  0.62756529  0.52504579  0.31218929     0.13000
H921        H  0.58169321  0.52578774  0.35538720     0.13000
H922        H  0.65398095  0.56634281  0.43011438     0.13000
C923        C  0.48309360  0.38277875  0.35349699    -0.13100
C924        C  0.50138312  0.39245573  0.32385474     0.09000
C925        C  0.52018638  0.42309403  0.32318793    -0.13100
C926        C  0.52006945  0.44439986  0.35175496    -0.13100
C927        C  0.50180409  0.43484197  0.38154099     0.09000
C928        C  0.48359915  0.40372938  0.38240069    -0.13100
H929        H  0.46859270  0.35900063  0.35421393     0.13000
H930        H  0.53441028  0.43070963  0.30037388     0.13000
H931        H  0.53438610  0.46826829  0.35066506     0.13000
H932        H  0.46914869  0.39607282  0.40505623     0.13000
C933        C  0.61931028  0.52772865  0.68516294    -0.13100
C934        C  0.65026587  0.54615216  0.68135458     0.09000
C935        C  0.65865185  0.56086265  0.64946574    -0.13100
C936        C  0.63641183  0.55682727  0.62144093    -0.13100
C937        C  0.60531754  0.53843517  0.62523529     0.09000
C938        C  0.59686976  0.52410842  0.65737471    -0.13100
H939        H  0.61273764  0.51588903  0.70957013     0.13000
H940        H  0.68282936  0.57462704  0.64608085     0.13000
H941        H  0.64330046  0.56839577  0.59699926     0.13000
H942        H  0.57306221  0.50976909  0.66093068     0.13000
C943        C  0.52388428  0.39956415  0.67030974    -0.13100
C944        C  0.50618573  0.36828645  0.66819017     0.09000
C945        C  0.48863049  0.35982239  0.63762531    -0.13100
C946        C  0.48810614  0.38289223  0.60987474    -0.13100
C947        C  0.50440655  0.41491089  0.61288030     0.09000
C948        C  0.52283432  0.42268019  0.64307125    -0.13100
H949        H  0.53730879  0.40677562  0.69371066     0.13000
H950        H  0.47484465  0.33574244  0.63555114     0.13000
H951        H  0.47369131  0.37644124  0.58685082     0.13000
H952        H  0.53585675  0.44711274  0.64593007     0.13000
C953        C  0.31440511  0.52296170  0.62278135    -0.13100
C954        C  0.31805132  0.54097509  0.65359452     0.09000
C955        C  0.35049023  0.55430510  0.66308069    -0.13100
C956        C  0.37912700  0.54950260  0.64201408    -0.13100
C957        C  0.37550008  0.53161430  0.61107020     0.09000
C958        C  0.34291243  0.51852952  0.60149652    -0.13100
H959        H  0.28963270  0.51206657  0.61547058     0.13000
H960        H  0.35382194  0.56757023  0.68729183     0.13000
H961        H  0.40388433  0.56025523  0.64957865     0.13000
H962        H  0.33953798  0.50472338  0.57760676     0.13000
C963        C  0.50528869  0.65026568  0.68898999    -0.13100
C964        C  0.48857050  0.68175778  0.68552799     0.09000
C965        C  0.47154356  0.69002692  0.65474920    -0.13100
C966        C  0.47211379  0.66744674  0.62719932    -0.13100
C967        C  0.48916652  0.63606996  0.63039670     0.09000
C968        C  0.50528934  0.62735024  0.66165712    -0.13100
H969        H  0.51869076  0.64372187  0.71261342     0.13000
H970        H  0.45886938  0.71448143  0.65167918     0.13000
H971        H  0.45931638  0.67451411  0.60340280     0.13000
H972        H  0.51872191  0.60327855  0.66459788     0.13000
C973        C  0.72785627  0.77520373  0.59480688    -0.16200
C974        C  0.72420540  0.79638559  0.56759036    -0.31400
H975        H  0.72601974  0.74781340  0.59026827     0.12800
H976        H  0.72686789  0.82387564  0.57027218     0.13400
C977        C  0.70544796  0.63865197  0.76270552    -0.16200
C978        C  0.72707365  0.61149432  0.76124197    -0.31400
H979        H  0.67814633  0.63471373  0.75728159     0.12800
H980        H  0.75440154  0.61488261  0.76693939     0.13400
C981        C  0.58900387  0.75948673  0.72628933    -0.16200
C982        C  0.56256649  0.76415115  0.74863604    -0.31400
H983        H  0.58461938  0.74630223  0.70218357     0.12800
H984        H  0.56684038  0.77875438  0.77198738     0.13400
C985        C  0.73607836  0.31567430  0.60247953    -0.16200
C986        C  0.75750433  0.31603527  0.57473954    -0.31400
H987        H  0.70844824  0.31810586  0.59798680     0.12800
H988        H  0.78498399  0.31135153  0.57797625     0.13400
C989        C  0.59365689  0.33770200  0.76466736    -0.16200
C990        C  0.56632304  0.31617090  0.76857545    -0.31400
H991        H  0.58940078  0.36214599  0.75202790     0.12800
H992        H  0.56966568  0.29172255  0.78145500     0.13400
C993        C  0.72716348  0.45284610  0.73260123    -0.16200
C994        C  0.73120829  0.48020476  0.75373179    -0.31400
H995        H  0.71651327  0.45643826  0.70701150     0.12800
H996        H  0.74366253  0.47700554  0.77859928     0.13400
C997        C  0.26217722  0.75792067  0.60254147    -0.16200
C998        C  0.24013521  0.75967370  0.57546804    -0.31400
H999        H  0.28901225  0.75127998  0.59767063     0.12800
H1000       H  0.21377161  0.76855134  0.57869183     0.13400
C1001       C  0.43190565  0.76331219  0.76455088    -0.16200
C1002       C  0.40466722  0.74251552  0.77089033    -0.31400
H1003       H  0.42903890  0.79086055  0.76614406     0.12800
H1004       H  0.40795614  0.71502753  0.76912447     0.13400
C1005       C  0.27713997  0.63128270  0.73889199    -0.16200
C1006       C  0.25458476  0.60504080  0.74235628    -0.31400
H1007       H  0.30236582  0.62695320  0.72747832     0.12800
H1008       H  0.22995280  0.60866592  0.75523212     0.13400
C1009       C  0.24561030  0.33253181  0.59707803    -0.16200
C1010       C  0.23933040  0.31163060  0.56983486    -0.31400
H1011       H  0.25825857  0.35694489  0.59239909     0.12800
H1012       H  0.22589870  0.28748591  0.57379585     0.13400
C1013       C  0.27257389  0.44911815  0.73109125    -0.16200
C1014       C  0.25059184  0.47526351  0.73684600    -0.31400
H1015       H  0.29748550  0.45409316  0.71910847     0.12800
H1016       H  0.22645216  0.47112197  0.75057305     0.13400
C1017       C  0.40593170  0.33382296  0.75097629    -0.16200
C1018       C  0.43362953  0.31463636  0.76015377    -0.31400
H1019       H  0.41013461  0.35660593  0.73549301     0.12800
H1020       H  0.43002463  0.29233112  0.77651437     0.13400
C1021       C  0.13430745  0.21876871  0.98889384    -0.13100
C1022       C  0.16471432  0.21243478  0.00778907     0.09000
C1023       C  0.16694202  0.18263653  0.02782687    -0.13100
C1024       C  0.13973733  0.15929167  0.02859379    -0.13100
C1025       C  0.10949683  0.16513421  0.00942622     0.09000
C1026       C  0.10666553  0.19533868  0.98993445    -0.13100
H1027       H  0.13208006  0.24164195  0.97327257     0.13000
H1028       H  0.19024601  0.17691034  0.04224697     0.13000
H1029       H  0.14259942  0.13624898  0.04388341     0.13000
H1030       H  0.08371746  0.20019214  0.97466340     0.13000
C1031       C  0.25630116  0.27090591  0.93755608    -0.16200
C1032       C  0.24881585  0.25109470  0.90989298    -0.31400
H1033       H  0.27151082  0.29410479  0.93425159     0.12800
H1034       H  0.23462970  0.22742728  0.91404205     0.13400
C1035       C  0.71676636  0.76818016  0.40930782    -0.16200
C1036       C  0.73396713  0.77722825  0.43825427    -0.31400
H1037       H  0.69086573  0.75751031  0.41103818     0.12800
H1038       H  0.75908648  0.78972802  0.43651060     0.13400
C1039       C  0.59575587  0.77757950  0.28403290    -0.16200
C1040       C  0.56968315  0.80052717  0.28832981    -0.31400
H1041       H  0.58942534  0.75066426  0.28715035     0.12800
H1042       H  0.57427941  0.82753479  0.28362286     0.13400
C1043       C  0.76069402  0.62967710  0.30134323    -0.16200
C1044       C  0.76143070  0.60166395  0.28075775    -0.31400
H1045       H  0.75230507  0.62681329  0.32782919     0.12800
H1046       H  0.77057528  0.60408826  0.25444497     0.13400
C1047       C  0.75023870  0.33316670  0.41272109    -0.16200
C1048       C  0.75661187  0.31412627  0.44141101    -0.31400
H1049       H  0.73886851  0.35828974  0.41548881     0.12800
H1050       H  0.76903828  0.28942951  0.43909045     0.13400
C1051       C  0.73012312  0.44253820  0.29169101    -0.16200
C1052       C  0.74187234  0.47105396  0.27503769    -0.31400
H1053       H  0.71542000  0.44519218  0.31521726     0.12800
H1054       H  0.75828730  0.46833499  0.25257386     0.13400
C1055       C  0.59536620  0.33905436  0.24712537    -0.16200
C1056       C  0.56569214  0.32132132  0.24064088    -0.31400
H1057       H  0.59370458  0.36491686  0.25689300     0.12800
H1058       H  0.56690305  0.29587837  0.22968916     0.13400
C1059       C  0.26123976  0.75364350  0.41494146    -0.16200
C1060       C  0.25257956  0.77024298  0.44425422    -0.31400
H1061       H  0.27136690  0.72791153  0.41643377     0.12800
H1062       H  0.24036373  0.79513761  0.44291940     0.13400
C1063       C  0.24991787  0.63680609  0.29126345    -0.16200
C1064       C  0.24791482  0.61033940  0.26889921    -0.31400
H1065       H  0.25871487  0.63184882  0.31736779     0.12800
H1066       H  0.23841067  0.61430885  0.24288123     0.13400
C1067       C  0.40620062  0.79592490  0.31463193    -0.16200
C1068       C  0.43531456  0.80348376  0.29612024    -0.31400
H1069       H  0.40859877  0.78332461  0.33938733     0.12800
H1070       H  0.43282821  0.81704532  0.27181036     0.13400
C1071       C  0.14270304  0.02290411  0.11616513    -0.13100
C1072       C  0.10992432  0.03640616  0.12354214     0.09000
C1073       C  0.10175206  0.04504574  0.15760756    -0.13100
C1074       C  0.12659052  0.04191923  0.18352652    -0.13100
C1075       C  0.15964199  0.02947728  0.17583566     0.09000
C1076       C  0.16728239  0.01921745  0.14220102    -0.13100
H1077       H  0.14945295  0.01548484  0.09021059     0.13000
H1078       H  0.07658816  0.05528031  0.16398821     0.13000
H1079       H  0.12039600  0.05005718  0.20939191     0.13000
H1080       H  0.19281098  0.00987374  0.13580031     0.13000
C1081       C  0.25612029  0.97408599  0.24032528    -0.16200
C1082       C  0.25916716  0.94855529  0.21721313    -0.31400
H1083       H  0.26340053  0.96988944  0.26701494     0.12800
H1084       H  0.25171229  0.95352116  0.19069155     0.13400
C1085       C  0.24316540  0.33000903  0.40923659    -0.16200
C1086       C  0.23806445  0.30908941  0.43682405    -0.31400
H1087       H  0.25574755  0.35450491  0.41356584     0.12800
H1088       H  0.22479694  0.28477577  0.43362430     0.13400
C1089       C  0.43178604  0.32847724  0.23852330    -0.16200
C1090       C  0.40408704  0.33099778  0.25994637    -0.31400
H1091       H  0.42835676  0.31937194  0.21238524     0.12800
H1092       H  0.40872440  0.33742269  0.28669279     0.13400
C1093       C  0.27224195  0.45063298  0.27253315    -0.16200
C1094       C  0.25162579  0.47849367  0.26875186    -0.31400
H1095       H  0.29893831  0.45392629  0.28050450     0.12800
H1096       H  0.22547292  0.47554551  0.25887628     0.13400
C1097       C  0.25679101  0.24847325  0.09736643    -0.16200
C1098       C  0.26097450  0.26989808  0.07008039    -0.31400
H1099       H  0.24547895  0.22340963  0.09288403     0.12800
H1100       H  0.27275360  0.29489642  0.07364902     0.13400
C1101       C  0.22814992  0.13086829  0.22603148    -0.16200
C1102       C  0.23728160  0.10326379  0.24520231    -0.31400
H1103       H  0.21484246  0.12718226  0.20172972     0.12800
H1104       H  0.25242370  0.10667242  0.26852441     0.13400
C1105       C  0.00821969  0.20156606  0.14947339    -0.13100
C1106       C  0.98987536  0.19227234  0.17921320     0.09000
C1107       C  0.96917086  0.16272863  0.17928590    -0.13100
C1108       C  0.96788231  0.14198492  0.15033558    -0.13100
C1109       C  0.98689730  0.15082804  0.12082382     0.09000
C1110       C  0.00645192  0.18110066  0.12025295    -0.13100
H1111       H  0.02405511  0.22449741  0.14901246     0.13000
H1112       H  0.95483813  0.15524310  0.20207954     0.13000
H1113       H  0.95262339  0.11866898  0.15120219     0.13000
H1114       H  0.02156808  0.18807189  0.09781467     0.13000
C1115       C  0.92895478  0.25197386  0.27300641    -0.16200
C1116       C  0.90049754  0.23184634  0.26817130    -0.31400
H1117       H  0.92630039  0.27695589  0.28472169     0.12800
H1118       H  0.90375883  0.20663812  0.25712464     0.13400
C1119       C  0.06311319  0.25366163  0.26520987    -0.16200
C1120       C  0.09021514  0.25509786  0.24282317    -0.31400
H1121       H  0.06736970  0.25887717  0.29230912     0.12800
H1122       H  0.08494565  0.25188297  0.21559945     0.13400
C1123       C  0.76314017  0.93835869  0.22455016    -0.16200
C1124       C  0.74125447  0.96522035  0.22575463    -0.31400
H1125       H  0.79032614  0.94359702  0.21943966     0.12800
H1126       H  0.71431264  0.96169424  0.23290169     0.13400
C1127       C  0.75101883  0.09556740  0.23843410    -0.16200
C1128       C  0.75774610  0.12512202  0.22126884    -0.31400
H1129       H  0.73927569  0.09615557  0.26379354     0.12800
H1130       H  0.76763337  0.12406788  0.19519459     0.13400
C1131       C  0.85795297  0.04649199  0.16603249    -0.13100
C1132       C  0.82583945  0.03228175  0.15680638     0.09000
C1133       C  0.82124768  0.01885384  0.12369524    -0.13100
C1134       C  0.84841237  0.01975924  0.10007638    -0.13100
C1135       C  0.88068414  0.03370087  0.10942296     0.09000
C1136       C  0.88519373  0.04705928  0.14260858    -0.13100
H1137       H  0.86206742  0.05683859  0.19153542     0.13000
H1138       H  0.79654482  0.00806463  0.11601858     0.13000
H1139       H  0.84426707  0.00930194  0.07462642     0.13000
H1140       H  0.90967151  0.05829210  0.15035523     0.13000
C1141       C  0.07233299  0.78408069  0.22153440    -0.16200
C1142       C  0.10094879  0.79292345  0.20310713    -0.31400
H1143       H  0.07515008  0.76937673  0.24513381     0.12800
H1144       H  0.09795235  0.80651272  0.17893615     0.13400
C1145       C  0.91021848  0.77996784  0.20315211    -0.16200
C1146       C  0.93915079  0.77678898  0.22273403    -0.31400
H1147       H  0.91266303  0.79065629  0.17744687     0.12800
H1148       H  0.93738477  0.76557730  0.24829034     0.13400
C1149       C  0.01836295  0.90071549  0.16849921    -0.13100
C1150       C  0.00085393  0.87044042  0.15958501     0.09000
C1151       C  0.98364895  0.86838363  0.12787844    -0.13100
C1152       C  0.98474138  0.89580911  0.10494489    -0.13100
C1153       C  0.00245730  0.92598378  0.11362634     0.09000
C1154       C  0.01878463  0.92854909  0.14580298    -0.13100
H1155       H  0.03181385  0.90267387  0.19290078     0.13000
H1156       H  0.97025720  0.84515178  0.12045017     0.13000
H1157       H  0.97169986  0.89347389  0.08034609     0.13000
H1158       H  0.03262496  0.95162331  0.15290988     0.13000
C1159       C  0.24387917  0.97485205  0.76607211    -0.16200
C1160       C  0.22158345  0.94838170  0.76950891    -0.31400
H1161       H  0.26897973  0.97124256  0.75411304     0.12800
H1162       H  0.19597422  0.95265054  0.78007677     0.13400
C1163       C  0.24786139  0.10446237  0.76847333    -0.16200
C1164       C  0.22588879  0.13086625  0.77231369    -0.31400
H1165       H  0.27294623  0.10812962  0.75638667     0.12800
H1166       H  0.20025050  0.12629017  0.78288478     0.13400
C1167       C  0.14787742  0.02482570  0.84647780    -0.13100
C1168       C  0.17989852  0.04019916  0.85382258     0.09000
C1169       C  0.18424252  0.05904198  0.88410548    -0.13100
C1170       C  0.15664628  0.06259879  0.90679927    -0.13100
C1171       C  0.12431141  0.04799660  0.89894259     0.09000
C1172       C  0.12019368  0.02884530  0.86879977    -0.13100
H1173       H  0.14401880  0.01059666  0.82290504     0.13000
H1174       H  0.20881643  0.07118898  0.88993078     0.13000
H1175       H  0.16038417  0.07715876  0.93017105     0.13000
H1176       H  0.09567638  0.01671952  0.86265713     0.13000
C1177       C  0.93673093  0.81641396  0.75935673    -0.16200
C1178       C  0.90790106  0.83222589  0.77097865    -0.31400
H1179       H  0.93401556  0.79395895  0.74322012     0.12800
H1180       H  0.91003927  0.85560056  0.78562112     0.13400
C1181       C  0.09333397  0.80599602  0.76392316    -0.16200
C1182       C  0.06754007  0.81508469  0.74244089    -0.31400
H1183       H  0.08738780  0.80420224  0.79125904     0.12800
H1184       H  0.07177147  0.81740269  0.71491503     0.13400
C1185       C  0.02706783  0.92099440  0.82627323    -0.13100
C1186       C  0.01557718  0.88747910  0.83225297     0.09000
C1187       C  0.00623844  0.87722426  0.86556355    -0.13100
C1188       C  0.00694951  0.90063280  0.89246358    -0.13100
C1189       C  0.01658849  0.93477992  0.88628072     0.09000
C1190       C  0.02735229  0.94460309  0.85308485    -0.13100
H1191       H  0.03447796  0.92917180  0.80063543     0.13000
H1192       H  0.99763772  0.85126735  0.87051793     0.13000
H1193       H  0.99869858  0.89228965  0.91778340     0.13000
H1194       H  0.03539933  0.97064644  0.84771035     0.13000
C1195       C  0.93318368  0.26483161  0.74034811    -0.16200
C1196       C  0.90778857  0.27149673  0.76342533    -0.31400
H1197       H  0.92786543  0.26570772  0.71291658     0.12800
H1198       H  0.91454529  0.27181564  0.79058252     0.13400
C1199       C  0.06605506  0.25110578  0.73644508    -0.16200
C1200       C  0.09391953  0.24942145  0.75771832    -0.31400
H1201       H  0.06927130  0.25858514  0.70969638     0.12800
H1202       H  0.08940323  0.24464418  0.78485718     0.13400
C1203       C  0.97076616  0.16843039  0.83159413    -0.13100
C1204       C  0.99487056  0.19502986  0.82763102     0.09000
C1205       C  0.01737692  0.20312638  0.85494940    -0.13100
C1206       C  0.01643587  0.18413024  0.88549943    -0.13100
C1207       C  0.99336699  0.15657836  0.88866898     0.09000
C1208       C  0.97022618  0.14917607  0.86179234    -0.13100
H1209       H  0.95319073  0.16182441  0.81088029     0.13000
H1210       H  0.03586494  0.22390693  0.85244935     0.13000
H1211       H  0.03480931  0.18976299  0.90582134     0.13000
H1212       H  0.95246964  0.12771564  0.86381078     0.13000
C1213       C  0.76484391  0.97584215  0.74803019    -0.16200
C1214       C  0.78629670  0.94959893  0.74075327    -0.31400
H1215       H  0.73697956  0.97216822  0.74712283     0.12800
H1216       H  0.81404673  0.95414738  0.74197681     0.13400
C1217       C  0.76850984  0.10639014  0.76176370    -0.16200
C1218       C  0.77596421  0.13363384  0.78218010    -0.31400
H1219       H  0.75346938  0.11024861  0.73844311     0.12800
H1220       H  0.78942210  0.12985250  0.80634456     0.13400
C1221       C  0.88036641  0.04706363  0.82327116    -0.13100
C1222       C  0.84809309  0.03132319  0.82815609     0.09000
C1223       C  0.84034697  0.01560646  0.85972305    -0.13100
C1224       C  0.86420334  0.01681240  0.88667756    -0.13100
C1225       C  0.89628927  0.03326319  0.88209776     0.09000
C1226       C  0.90444598  0.04776800  0.84995685    -0.13100
H1227       H  0.88657348  0.05940631  0.79902431     0.13000
H1228       H  0.81534270  0.00362341  0.86388237     0.13000
H1229       H  0.85746704  0.00516676  0.91112758     0.13000
H1230       H  0.92898896  0.06064356  0.84577732     0.13000
C1231       C  0.25255857  0.83559398  0.09829990    -0.16200
C1232       C  0.25942325  0.81881331  0.06867370    -0.31400
H1233       H  0.24360517  0.86180411  0.09721707     0.12800
H1234       H  0.27018611  0.79323962  0.06933618     0.13400
C1235       C  0.24502536  0.83498142  0.91077036    -0.16200
C1236       C  0.26734279  0.83216320  0.93753475    -0.31400
H1237       H  0.21868165  0.84310657  0.91582180     0.12800
H1238       H  0.29293471  0.82145897  0.93390879     0.13400
C1239       C  0.18837991  0.93318557  0.99334694    -0.13100
C1240       C  0.18444408  0.89938655  0.00469518     0.09000
C1241       C  0.15194544  0.88743206  0.01549019    -0.13100
C1242       C  0.12355570  0.90907523  0.01502956    -0.13100
C1243       C  0.12743302  0.94309474  0.00417569     0.09000
C1244       C  0.16004484  0.95500760  0.99323819    -0.13100
H1245       H  0.21337412  0.94267578  0.98489765     0.13000
H1246       H  0.14850943  0.86120777  0.02393342     0.13000
H1247       H  0.09871878  0.89932769  0.02361086     0.13000
H1248       H  0.16360041  0.98109880  0.98443212     0.13000
C1249       C  0.75876781  0.26103799  0.10157565    -0.16200
C1250       C  0.73609237  0.25860030  0.07503611    -0.31400
H1251       H  0.78618330  0.25834082  0.09612398     0.12800
H1252       H  0.70869529  0.26300727  0.07917861     0.13400
C1253       C  0.73237928  0.25415157  0.94274455    -0.16200
C1254       C  0.75425976  0.25353931  0.91550053    -0.31400
H1255       H  0.70599517  0.26305506  0.93960820     0.12800
H1256       H  0.78113321  0.24705207  0.92027424     0.13400
C1257       C  0.84810153  0.19535830  0.02410219    -0.13100
C1258       C  0.81677054  0.18463507  0.00910347     0.09000
C1259       C  0.81521986  0.15321664  0.99204718    -0.13100
C1260       C  0.84453181  0.13275290  0.99001594    -0.13100
C1261       C  0.87606579  0.14353401  0.00465264     0.09000
C1262       C  0.87764335  0.17507090  0.02166625    -0.13100
H1263       H  0.84983681  0.21975535  0.03707753     0.13000
H1264       H  0.79129608  0.14454090  0.98031798     0.13000
H1265       H  0.84257657  0.10856279  0.97668725     0.13000
H1266       H  0.90152548  0.18380853  0.03342790     0.13000
C1267       C  0.77194119  0.79215414  0.06328283    -0.16200
C1268       C  0.78900830  0.79979753  0.09277017    -0.31400
H1269       H  0.74675724  0.77971775  0.06418940     0.12800
H1270       H  0.81503039  0.81026764  0.09154995     0.13400
C1271       C  0.78513320  0.78121384  0.93253769    -0.16200
C1272       C  0.78834042  0.80264128  0.90527224    -0.31400
H1273       H  0.77458108  0.75563794  0.92944493     0.12800
H1274       H  0.79618630  0.82894463  0.90984555     0.13400
C1275       C  0.84243772  0.89754207  0.00814260    -0.13100
C1276       C  0.85348948  0.86533947  0.99717260     0.09000
C1277       C  0.88718861  0.86110210  0.98475177    -0.13100
C1278       C  0.90993556  0.88873653  0.98399820    -0.13100
C1279       C  0.89904003  0.92092302  0.99537483     0.09000
C1280       C  0.86503675  0.92522901  0.00712956    -0.13100
H1281       H  0.81626374  0.90126040  0.01730913     0.13000
H1282       H  0.89597985  0.83634145  0.97612830     0.13000
H1283       H  0.93600741  0.88492040  0.97460109     0.13000
H1284       H  0.85610536  0.94979586  0.01616849     0.13000
loop_ 
_geom_bond_atom_site_label_1 
_geom_bond_atom_site_label_2 
_geom_bond_distance 
_geom_bond_site_symmetry_2 
_ccdc_geom_bond_type 
C1            C2   1.420   1_554  A
C1            C6   1.405       .  A
C1         C1267   1.497       .  S
C2            C3   1.419       .  A
C2            H7   1.083       .  S
C3            C4   1.404       .  A
C3         C1271   1.496       .  S
C4            C5   1.385       .  A
C4            H8   1.084       .  S
C5            C6   1.386   1_556  A
C5         C1276   1.462       .  S
C6            H9   1.082       .  S
C10          C11   1.409       .  A
C10          C15   1.423       .  A
C10        C1250   1.504       .  S
C11          C12   1.390       .  A
C11          H16   1.083       .  S
C12          C13   1.392   1_554  A
C12        C1258   1.475       .  S
C13          C14   1.409       .  A
C13          H17   1.082       .  S
C14          C15   1.422   1_556  A
C14        C1253   1.508       .  S
C15          H18   1.083       .  S
C19          C20   1.405       .  A
C19          C24   1.420       .  A
C19        C1232   1.498       .  S
C20          C21   1.386       .  A
C20          H25   1.082       .  S
C21          C22   1.386   1_554  A
C21        C1240   1.463       .  S
C22          C23   1.406       .  A
C22          H26   1.083       .  S
C23          C24   1.420   1_556  A
C23        C1236   1.497       .  S
C24          H27   1.083       .  S
C28          C29   1.406       .  A
C28          C33   1.424       .  A
C28        C1217   1.507       .  S
C29          C30   1.392       .  A
C29          H34   1.080       .  S
C30          C31   1.390       .  A
C30        C1222   1.467       .  S
C31          C32   1.405       .  A
C31          H35   1.084   1_545  S
C32          C33   1.422       .  A
C32        C1213   1.500   1_545  S
C33          H36   1.083       .  S
C37          C38   1.406       .  A
C37          C42   1.425       .  A
C37        C1195   1.505       .  S
C38          C39   1.388       .  A
C38          H43   1.083       .  S
C39          C40   1.390   1_655  A
C39        C1204   1.474       .  S
C40          C41   1.410       .  A
C40          H44   1.082       .  S
C41          C42   1.425   1_455  A
C41        C1199   1.511       .  S
C42          H45   1.083   1_655  S
C46          C47   1.409       .  A
C46          C51   1.419   1_655  A
C46        C1177   1.501       .  S
C47          C48   1.393   1_655  A
C47          H52   1.080       .  S
C48          C49   1.389       .  A
C48        C1186   1.468       .  S
C49          C50   1.405       .  A
C49          H53   1.085       .  S
C50          C51   1.414       .  A
C50        C1182   1.490       .  S
C51          H54   1.083   1_455  S
C55          C56   1.403       .  A
C55          C60   1.412       .  A
C55        C1163   1.485       .  S
C56          C57   1.386       .  A
C56          H61   1.083       .  S
C57          C58   1.387       .  A
C57        C1168   1.463       .  S
C58          C59   1.405       .  A
C58          H62   1.083   1_545  S
C59          C60   1.413       .  A
C59        C1159   1.487   1_545  S
C60          H63   1.083       .  S
C64          C65   1.424   1_655  A
C64          C69   1.409       .  A
C64        C1146   1.508       .  S
C65          C66   1.425       .  A
C65          H70   1.083       .  S
C66          C67   1.407       .  A
C66        C1141   1.509       .  S
C67          C68   1.391       .  A
C67          H71   1.081       .  S
C68          C69   1.393   1_455  A
C68        C1150   1.474       .  S
C69          H72   1.082       .  S
C73          C74   1.407       .  A
C73          C78   1.421       .  A
C73        C1127   1.502       .  S
C74          C75   1.390       .  A
C74          H79   1.081       .  S
C75          C76   1.391       .  A
C75        C1132   1.473       .  S
C76          C77   1.408   1_545  A
C76          H80   1.084   1_545  S
C77          C78   1.420   1_565  A
C77        C1124   1.501       .  S
C78          H81   1.083       .  S
C82          C83   1.402       .  A
C82          C87   1.429       .  A
C82        C1115   1.508       .  S
C83          C84   1.386       .  A
C83          H88   1.083       .  S
C84          C85   1.391   1_655  A
C84        C1106   1.467       .  S
C85          C86   1.408       .  A
C85          H89   1.082       .  S
C86          C87   1.430   1_455  A
C86        C1119   1.515       .  S
C87          H90   1.083       .  S
Zr91         O92   2.442       .  S
Zr91         O93   2.456       .  S
Zr91         O94   2.456       .  S
Zr91         O97   2.445       .  S
Zr91         O99   2.375       .  S
Zr91        O100   2.384       .  S
Zr91        O101   2.411       .  S
Zr91        O102   2.405       .  S
O92         H148   0.990       .  S
O92         H156   0.991       .  S
O93         C113   1.288       .  A
O94         C115   1.289       .  A
O95        Zr105   2.469       .  S
O95         C114   1.289       .  A
O96        Zr104   2.461       .  S
O96         C115   1.287       .  A
O97         C114   1.287       .  A
O98        Zr106   2.422       .  S
O98         C113   1.278       .  A
O99        Zr104   2.406       .  S
O99        Zr106   2.388       .  S
O100       Zr105   2.413       .  S
O100       Zr106   2.384       .  S
O100        H135   0.967       .  S
O101       Zr104   2.411       .  S
O101       Zr121   2.387       .  S
O101        H138   0.964       .  S
O102       Zr105   2.396       .  S
O102       Zr121   2.395       .  S
Zr103       O128   2.442       .  S
Zr103       O122   2.450       .  S
Zr103       O130   2.452       .  S
Zr103       O118   2.459       .  S
Zr103       O109   2.397       .  S
Zr103       O110   2.409       .  S
Zr103       O111   2.374       .  S
Zr103       O112   2.385       .  S
Zr104       O123   2.435       .  S
Zr104       O116   2.434       .  S
Zr104       O117   2.450       .  S
Zr104       O110   2.411       .  S
Zr104       O111   2.407       .  S
Zr105       O107   2.435       .  S
Zr105       O129   2.436       .  S
Zr105       O131   2.464       .  S
Zr105       O109   2.399       .  S
Zr105       O112   2.403       .  S
Zr106       O132   2.435       .  S
Zr106       O133   2.436       .  S
Zr106       O108   2.439       .  S
Zr106       O109   2.389       .  S
Zr106       O110   2.399       .  S
O107        H144   0.990       .  S
O108        H139   0.990       .  S
O108        H153   0.990       .  S
O110        H136   0.965       .  S
O111       Zr121   2.387       .  S
O112       Zr121   2.384       .  S
O112        H137   0.965       .  S
C113       C1093   1.480       .  S
C114       C1085   1.491       .  S
C115       C1090   1.486       .  S
O116        H152   0.990       .  S
O117        C119   1.285       .  A
O118        C119   1.288       .  A
C119       C1097   1.484       .  S
O120       Zr121   2.443       .  S
O120        H149   0.990       .  S
Zr121       O124   2.437       .  S
Zr121       O125   2.440       .  S
Zr121       O126   2.423       .  S
O122        C127   1.287       .  A
O123        H140   0.990       .  S
O123        H155   0.990       .  S
O124        H141   0.990       .  S
O125        H145   0.990       .  S
O125        H154   0.990       .  S
O126        C127   1.280       .  A
C127       C1101   1.479       .  S
O128        H147   0.991       .  S
O128        H151   0.990       .  S
O129        H143   0.990       .  S
O129        H150   0.990       .  S
O130        C134   1.290       .  A
O131        C134   1.288       .  A
O132        H142   0.990       .  S
O133        H146   0.990       .  S
C134       C1120   1.494       .  S
C157        C158   1.405       .  A
C157        C162   1.419       .  A
C157       C1102   1.501       .  S
C158        C159   1.391       .  A
C158        H163   1.082       .  S
C159        C160   1.392       .  A
C159       C1075   1.470       .  S
C160        C161   1.408       .  A
C160        H164   1.083   1_545  S
C161        C162   1.419       .  A
C161       C1081   1.498   1_545  S
C162        H165   1.083       .  S
Zr166       O167   2.441       .  S
Zr166       O168   2.441       .  S
Zr166       O169   2.467       .  S
Zr166       O172   2.445       .  S
Zr166       O174   2.381       .  S
Zr166       O175   2.379       .  S
Zr166       O176   2.401       .  S
Zr166       O177   2.402       .  S
O167        H223   0.990       .  S
O167        H231   0.990       .  S
O168        C188   1.286       .  A
O169        C190   1.291       .  A
O170       Zr180   2.446       .  S
O170        C189   1.285       .  A
O171       Zr179   2.455       .  S
O171        C190   1.286       .  A
O172        C189   1.288       .  A
O173       Zr181   2.427       .  S
O173        C188   1.280       .  A
O174       Zr179   2.409       .  S
O174       Zr181   2.389       .  S
O175       Zr180   2.401       .  S
O175       Zr181   2.375       .  S
O175        H210   0.966       .  S
O176       Zr179   2.410       .  S
O176       Zr196   2.392       .  S
O176        H213   0.965       .  S
O177       Zr180   2.396       .  S
O177       Zr196   2.390       .  S
Zr178       O203   2.441       .  S
Zr178       O197   2.441       .  S
Zr178       O205   2.454       .  S
Zr178       O193   2.443       .  S
Zr178       O184   2.393       .  S
Zr178       O185   2.409       .  S
Zr178       O186   2.372       .  S
Zr178       O187   2.379       .  S
Zr179       O198   2.434       .  S
Zr179       O191   2.437       .  S
Zr179       O192   2.455       .  S
Zr179       O185   2.412       .  S
Zr179       O186   2.400       .  S
Zr180       O182   2.437       .  S
Zr180       O204   2.438       .  S
Zr180       O206   2.446       .  S
Zr180       O184   2.393       .  S
Zr180       O187   2.402       .  S
Zr181       O207   2.437       .  S
Zr181       O208   2.434       .  S
Zr181       O183   2.434       .  S
Zr181       O184   2.390       .  S
Zr181       O185   2.395       .  S
O182        H219   0.990       .  S
O183        H214   0.990       .  S
O183        H228   0.990       .  S
O185        H211   0.965       .  S
O186       Zr196   2.385       .  S
O187       Zr196   2.384       .  S
O187        H212   0.966       .  S
C188       C1059   1.475       .  S
C189       C1063   1.479       .  S
C190       C1067   1.491       .  S
O191        H227   0.990       .  S
O192        C194   1.287       .  A
O193        C194   1.285       .  A
C194       C1082   1.478       .  S
O195       Zr196   2.439       .  S
O195        H224   0.990       .  S
Zr196       O199   2.438       .  S
Zr196       O200   2.438       .  S
Zr196       O201   2.416       .  S
O197        C202   1.286       .  A
O198        H215   0.990       .  S
O198        H230   0.990       .  S
O199        H216   0.990       .  S
O200        H220   0.990       .  S
O200        H229   0.990       .  S
O201        C202   1.278       .  A
C202       C1231   1.471       .  S
O203        H222   0.990       .  S
O203        H226   0.990       .  S
O204        H218   0.990       .  S
O204        H225   0.990       .  S
O205        C209   1.290       .  A
O206        C209   1.285       .  A
O207        H217   0.990       .  S
O208        H221   0.990       .  S
C209       C1142   1.485       .  S
Zr232       O233   2.443       .  S
Zr232       O234   2.446       .  S
Zr232       O235   2.461       .  S
Zr232       O238   2.445       .  S
Zr232       O240   2.378       .  S
Zr232       O241   2.386       .  S
Zr232       O242   2.411       .  S
Zr232       O243   2.398       .  S
O233        H289   0.991       .  S
O233        H297   0.990       .  S
O234        C254   1.286       .  A
O235        C256   1.289       .  A
O236       Zr246   2.458       .  S
O236        C255   1.287       .  A
O237       Zr245   2.447       .  S
O237        C256   1.284       .  A
O238        C255   1.288       .  A
O239       Zr247   2.434       .  S
O239        C254   1.281       .  A
O240       Zr245   2.406       .  S
O240       Zr247   2.386       .  S
O241       Zr246   2.397       .  S
O241       Zr247   2.387       .  S
O241        H276   0.965       .  S
O242       Zr245   2.407       .  S
O242       Zr262   2.401       .  S
O242        H279   0.966       .  S
O243       Zr246   2.394       .  S
O243       Zr262   2.395       .  S
Zr244       O269   2.447       .  S
Zr244       O263   2.450       .  S
Zr244       O271   2.453       .  S
Zr244       O259   2.453       .  S
Zr244       O250   2.403       .  S
Zr244       O251   2.405       .  S
Zr244       O252   2.376       .  S
Zr244       O253   2.378       .  S
Zr245       O264   2.436       .  S
Zr245       O257   2.435       .  S
Zr245       O258   2.452       .  S
Zr245       O251   2.403       .  S
Zr245       O252   2.398       .  S
Zr246       O248   2.434       .  S
Zr246       O270   2.439       .  S
Zr246       O272   2.442       .  S
Zr246       O250   2.399       .  S
Zr246       O253   2.404       .  S
Zr247       O273   2.437       .  S
Zr247       O274   2.436       .  S
Zr247       O249   2.437       .  S
Zr247       O250   2.400       .  S
Zr247       O251   2.397       .  S
O248        H285   0.990       .  S
O249        H280   0.990       .  S
O249        H294   0.990       .  S
O251        H277   0.965       .  S
O252       Zr262   2.378       .  S
O253       Zr262   2.380       .  S
O253        H278   0.966       .  S
C254       C1128   1.477       .  S
C255       C1249   1.485       .  S
C256       C1116   1.484       .  S
O257        H293   0.990       .  S
O258        C260   1.286       .  A
O259        C260   1.290       .  A
C260       C1047   1.485       .  S
O261       Zr262   2.439       .  S
O261        H290   0.990       .  S
Zr262       O265   2.438       .  S
Zr262       O266   2.438       .  S
Zr262       O267   2.443       .  S
O263        C268   1.289       .  A
O264        H281   0.990       .  S
O264        H296   0.990       .  S
O265        H282   0.990       .  S
O266        H286   0.990       .  S
O266        H295   0.990       .  S
O267        C268   1.283       .  A
C268       C1051   1.489       .  S
O269        H288   0.990       .  S
O269        H292   0.990       .  S
O270        H284   0.990       .  S
O270        H291   0.990       .  S
O271        C275   1.289       .  A
O272        C275   1.284       .  A
O273        H283   0.990       .  S
O274        H287   0.990       .  S
C275       C1055   1.481       .  S
Zr298       O299   2.440       .  S
Zr298       O300   2.440       .  S
Zr298       O301   2.467       .  S
Zr298       O304   2.452       .  S
Zr298       O306   2.381       .  S
Zr298       O307   2.384       .  S
Zr298       O308   2.406       .  S
Zr298       O309   2.396       .  S
O299        H355   0.990       .  S
O299        H363   0.990       .  S
O300        C320   1.285       .  A
O301        C322   1.290       .  A
O302       Zr312   2.473       .  S
O302        C321   1.289       .  A
O303       Zr311   2.445       .  S
O303        C322   1.284       .  A
O304        C321   1.290       .  A
O305       Zr313   2.418       .  S
O305        C320   1.279       .  A
O306       Zr311   2.408       .  S
O306       Zr313   2.384       .  S
O307       Zr312   2.398       .  S
O307       Zr313   2.388       .  S
O307        H342   0.965       .  S
O308       Zr311   2.414       .  S
O308       Zr328   2.401       .  S
O308        H345   0.966       .  S
O309       Zr312   2.395       .  S
O309       Zr328   2.387       .  S
Zr310       O335   2.441       .  S
Zr310       O329   2.437       .  S
Zr310       O337   2.434       .  S
Zr310       O325   2.448       .  S
Zr310       O316   2.397       .  S
Zr310       O317   2.404       .  S
Zr310       O318   2.368       .  S
Zr310       O319   2.384       .  S
Zr311       O330   2.436       .  S
Zr311       O323   2.437       .  S
Zr311       O324   2.460       .  S
Zr311       O317   2.406       .  S
Zr311       O318   2.399       .  S
Zr312       O314   2.434       .  S
Zr312       O336   2.439       .  S
Zr312       O338   2.459       .  S
Zr312       O316   2.399       .  S
Zr312       O319   2.413       .  S
Zr313       O339   2.437       .  S
Zr313       O340   2.438       .  S
Zr313       O315   2.437       .  S
Zr313       O316   2.388       .  S
Zr313       O317   2.397       .  S
O314        H351   0.990       .  S
O315        H346   0.990       .  S
O315        H360   0.990       .  S
O317        H343   0.966       .  S
O318       Zr328   2.386       .  S
O319       Zr328   2.390       .  S
O319        H344   0.966       .  S
C320       C1035   1.470       .  S
C321       C1039   1.498       .  S
C322       C1043   1.484       .  S
O323        H359   0.990       .  S
O324        C326   1.287       .  A
O325        C326   1.286       .  A
C326       C1145   1.485       .  S
O327       Zr328   2.437       .  S
O327        H356   0.990       .  S
Zr328       O331   2.437       .  S
Zr328       O332   2.440       .  S
Zr328       O333   2.418       .  S
O329        C334   1.284       .  A
O330        H347   0.990       .  S
O330        H362   0.990       .  S
O331        H348   0.990       .  S
O332        H352   0.990       .  S
O332        H361   0.990       .  S
O333        C334   1.278       .  A
C334       C1268   1.471       .  S
O335        H354   0.991       .  S
O335        H358   0.990       .  S
O336        H350   0.990       .  S
O336        H357   0.990       .  S
O337        C341   1.286       .  A
O338        C341   1.288       .  A
O339        H349   0.991       .  S
O340        H353   0.990       .  S
C341       C1123   1.481       .  S
C364        C365   1.422       .  A
C364        C369   1.405       .  A
C364       C1098   1.506       .  S
C365        C366   1.424   1_554  A
C365        H370   1.083       .  S
C366        C367   1.413       .  A
C366       C1031   1.510       .  S
C367        C368   1.395   1_556  A
C367        H371   1.082       .  S
C368        C369   1.393       .  A
C368       C1022   1.480       .  S
C369        H372   1.083       .  S
Zr373       O374   2.443       .  S
Zr373       O375   2.435       .  S
Zr373       O376   2.440       .  S
Zr373       O379   2.439       .  S
Zr373       O381   2.373       .  S
Zr373       O382   2.383       .  S
Zr373       O383   2.407       .  S
Zr373       O384   2.399       .  S
O374        H430   0.990       .  S
O374        H438   0.991       .  S
O375        C395   1.283       .  A
O376        C397   1.286       .  A
O377       Zr387   2.468       .  S
O377        C396   1.289       .  A
O378       Zr386   2.470       .  S
O378        C397   1.288       .  A
O379        C396   1.286       .  A
O380       Zr388   2.406       .  S
O380        C395   1.276       .  A
O381       Zr386   2.404       .  S
O381       Zr388   2.392       .  S
O382       Zr387   2.404       .  S
O382       Zr388   2.380       .  S
O382        H417   0.966       .  S
O383       Zr386   2.410       .  S
O383       Zr403   2.382       .  S
O383        H420   0.964       .  S
O384       Zr387   2.396       .  S
O384       Zr403   2.392       .  S
Zr385       O410   2.442       .  S
Zr385       O404   2.441       .  S
Zr385       O412   2.446       .  S
Zr385       O400   2.458       .  S
Zr385       O391   2.401       .  S
Zr385       O392   2.402       .  S
Zr385       O393   2.375       .  S
Zr385       O394   2.382       .  S
Zr386       O405   2.434       .  S
Zr386       O398   2.433       .  S
Zr386       O399   2.457       .  S
Zr386       O392   2.410       .  S
Zr386       O393   2.410       .  S
Zr387       O389   2.435       .  S
Zr387       O411   2.436       .  S
Zr387       O413   2.460       .  S
Zr387       O391   2.402       .  S
Zr387       O394   2.402       .  S
Zr388       O414   2.439       .  S
Zr388       O415   2.436       .  S
Zr388       O390   2.436       .  S
Zr388       O391   2.384       .  S
Zr388       O392   2.393       .  S
O389        H426   0.990       .  S
O390        H421   0.990       .  S
O390        H435   0.990       .  S
O392        H418   0.964       .  S
O393       Zr403   2.388       .  S
O394       Zr403   2.379       .  S
O394        H419   0.965       .  S
C395       C1164   1.465       .  S
C396       C1032   1.489       .  S
C397       C1200   1.485       .  S
O398        H434   0.990       .  S
O399        C401   1.287       .  A
O400        C401   1.290       .  A
C401       C1009   1.490       .  S
O402       Zr403   2.438       .  S
O402        H431   0.990       .  S
Zr403       O406   2.438       .  S
Zr403       O407   2.440       .  S
Zr403       O408   2.406       .  S
O404        C409   1.285       .  A
O405        H422   0.990       .  S
O405        H437   0.990       .  S
O406        H423   0.990       .  S
O407        H427   0.990       .  S
O407        H436   0.990       .  S
O408        C409   1.276       .  A
C409       C1013   1.466       .  S
O410        H429   0.990       .  S
O410        H433   0.990       .  S
O411        H425   0.990       .  S
O411        H432   0.990       .  S
O412        C416   1.287       .  A
O413        C416   1.288       .  A
O414        H424   0.990       .  S
O415        H428   0.990       .  S
C416       C1017   1.485       .  S
Zr439       O440   2.443       .  S
Zr439       O441   2.440       .  S
Zr439       O442   2.438       .  S
Zr439       O445   2.429       .  S
Zr439       O447   2.375       .  S
Zr439       O448   2.380       .  S
Zr439       O449   2.409       .  S
Zr439       O450   2.390       .  S
O440        H496   0.990       .  S
O440        H504   0.990       .  S
O441        C461   1.284       .  A
O442        C463   1.285       .  A
O443       Zr453   2.465       .  S
O443        C462   1.288       .  A
O444       Zr452   2.446       .  S
O444        C463   1.284       .  A
O445        C462   1.284       .  A
O446       Zr454   2.407       .  S
O446        C461   1.277       .  A
O447       Zr452   2.400       .  S
O447       Zr454   2.387       .  S
O448       Zr453   2.397       .  S
O448       Zr454   2.390       .  S
O448        H483   0.966       .  S
O449       Zr452   2.403       .  S
O449       Zr469   2.391       .  S
O449        H486   0.964       .  S
O450       Zr453   2.385       .  S
O450       Zr469   2.383       .  S
Zr451       O476   2.442       .  S
Zr451       O470   2.428       .  S
Zr451       O478   2.438       .  S
Zr451       O466   2.441       .  S
Zr451       O457   2.387       .  S
Zr451       O458   2.401       .  S
Zr451       O459   2.370       .  S
Zr451       O460   2.383       .  S
Zr452       O471   2.434       .  S
Zr452       O464   2.434       .  S
Zr452       O465   2.432       .  S
Zr452       O458   2.408       .  S
Zr452       O459   2.401       .  S
Zr453       O455   2.435       .  S
Zr453       O477   2.441       .  S
Zr453       O479   2.444       .  S
Zr453       O457   2.397       .  S
Zr453       O460   2.411       .  S
Zr454       O480   2.436       .  S
Zr454       O481   2.436       .  S
Zr454       O456   2.436       .  S
Zr454       O457   2.378       .  S
Zr454       O458   2.392       .  S
O455        H492   0.990       .  S
O456        H487   0.990       .  S
O456        H501   0.990       .  S
O458        H484   0.965       .  S
O459       Zr469   2.379       .  S
O460       Zr469   2.387       .  S
O460        H485   0.966       .  S
C461       C1160   1.467       .  S
C462       C1181   1.475       .  S
C463       C1235   1.474       .  S
O464        H500   0.990       .  S
O465        C467   1.282       .  A
O466        C467   1.284       .  A
C467       C1002   1.467       .  S
O468       Zr469   2.440       .  S
O468        H497   0.990       .  S
Zr469       O472   2.439       .  S
Zr469       O473   2.438       .  S
Zr469       O474   2.414       .  S
O470        C475   1.282       .  A
O471        H488   0.990       .  S
O471        H503   0.990       .  S
O472        H489   0.990       .  S
O473        H493   0.990       .  S
O473        H502   0.990       .  S
O474        C475   1.278       .  A
C475       C1005   1.465       .  S
O476        H495   0.990       .  S
O476        H499   0.991       .  S
O477        H491   0.990       .  S
O477        H498   0.990       .  S
O478        C482   1.287       .  A
O479        C482   1.285       .  A
O480        H490   0.990       .  S
O481        H494   0.990       .  S
C482        C997   1.475       .  S
Zr505       O506   2.441       .  S
Zr505       O507   2.459       .  S
Zr505       O508   2.447       .  S
Zr505       O511   2.456       .  S
Zr505       O513   2.378       .  S
Zr505       O514   2.382       .  S
Zr505       O515   2.418       .  S
Zr505       O516   2.396       .  S
O506        H562   0.990       .  S
O506        H570   0.990       .  S
O507        C527   1.288       .  A
O508        C529   1.287       .  A
O509       Zr519   2.452       .  S
O509        C528   1.286       .  A
O510       Zr518   2.464       .  S
O510        C529   1.288       .  A
O511        C528   1.290       .  A
O512       Zr520   2.424       .  S
O512        C527   1.279       .  A
O513       Zr518   2.407       .  S
O513       Zr520   2.386       .  S
O514       Zr519   2.410       .  S
O514       Zr520   2.386       .  S
O514        H549   0.964       .  S
O515       Zr518   2.414       .  S
O515       Zr535   2.394       .  S
O515        H552   0.965       .  S
O516       Zr519   2.396       .  S
O516       Zr535   2.393       .  S
Zr517       O542   2.441       .  S
Zr517       O536   2.453       .  S
Zr517       O544   2.445       .  S
Zr517       O532   2.446       .  S
Zr517       O523   2.397       .  S
Zr517       O524   2.414       .  S
Zr517       O525   2.376       .  S
Zr517       O526   2.378       .  S
Zr518       O537   2.438       .  S
Zr518       O530   2.433       .  S
Zr518       O531   2.455       .  S
Zr518       O524   2.408       .  S
Zr518       O525   2.410       .  S
Zr519       O521   2.434       .  S
Zr519       O543   2.439       .  S
Zr519       O545   2.465       .  S
Zr519       O523   2.391       .  S
Zr519       O526   2.405       .  S
Zr520       O546   2.435       .  S
Zr520       O547   2.434       .  S
Zr520       O522   2.437       .  S
Zr520       O523   2.388       .  S
Zr520       O524   2.404       .  S
O521        H558   0.990       .  S
O522        H553   0.990       .  S
O522        H567   0.990       .  S
O524        H550   0.965       .  S
O525       Zr535   2.384       .  S
O526       Zr535   2.388       .  S
O526        H551   0.965       .  S
C527       C1218   1.485       .  S
C528       C1196   1.485       .  S
C529       C1254   1.485       .  S
O530        H566   0.990       .  S
O531        C533   1.286       .  A
O532        C533   1.285       .  A
C533        C989   1.482       .  S
O534       Zr535   2.439       .  S
O534        H563   0.990       .  S
Zr535       O538   2.437       .  S
Zr535       O539   2.441       .  S
Zr535       O540   2.423       .  S
O536        C541   1.287       .  A
O537        H554   0.990       .  S
O537        H569   0.990       .  S
O538        H555   0.990       .  S
O539        H559   0.990       .  S
O539        H568   0.990       .  S
O540        C541   1.279       .  A
C541        C993   1.480       .  S
O542        H561   0.990       .  S
O542        H565   0.991       .  S
O543        H557   0.990       .  S
O543        H564   0.990       .  S
O544        C548   1.289       .  A
O545        C548   1.289       .  A
O546        H556   0.990       .  S
O547        H560   0.990       .  S
C548        C985   1.488       .  S
Zr571       O572   2.444       .  S
Zr571       O573   2.448       .  S
Zr571       O574   2.438       .  S
Zr571       O577   2.438       .  S
Zr571       O579   2.380       .  S
Zr571       O580   2.375       .  S
Zr571       O581   2.409       .  S
Zr571       O582   2.402       .  S
O572        H628   0.991       .  S
O572        H636   0.990       .  S
O573        C593   1.286       .  A
O574        C595   1.285       .  A
O575       Zr585   2.461       .  S
O575        C594   1.287       .  A
O576       Zr584   2.439       .  S
O576        C595   1.283       .  A
O577        C594   1.285       .  A
O578       Zr586   2.423       .  S
O578        C593   1.280       .  A
O579       Zr584   2.412       .  S
O579       Zr586   2.384       .  S
O580       Zr585   2.402       .  S
O580       Zr586   2.383       .  S
O580        H615   0.966       .  S
O581       Zr584   2.416       .  S
O581       Zr601   2.390       .  S
O581        H618   0.965       .  S
O582       Zr585   2.396       .  S
O582       Zr601   2.396       .  S
Zr583       O608   2.443       .  S
Zr583       O602   2.449       .  S
Zr583       O610   2.425       .  S
Zr583       O598   2.447       .  S
Zr583       O589   2.396       .  S
Zr583       O590   2.407       .  S
Zr583       O591   2.369       .  S
Zr583       O592   2.384       .  S
Zr584       O603   2.436       .  S
Zr584       O596   2.436       .  S
Zr584       O597   2.456       .  S
Zr584       O590   2.403       .  S
Zr584       O591   2.400       .  S
Zr585       O587   2.436       .  S
Zr585       O609   2.440       .  S
Zr585       O611   2.458       .  S
Zr585       O589   2.396       .  S
Zr585       O592   2.404       .  S
Zr586       O612   2.437       .  S
Zr586       O613   2.436       .  S
Zr586       O588   2.437       .  S
Zr586       O589   2.386       .  S
Zr586       O590   2.399       .  S
O587        H624   0.990       .  S
O588        H619   0.990       .  S
O588        H633   0.990       .  S
O590        H616   0.965       .  S
O591       Zr601   2.387       .  S
O592       Zr601   2.386       .  S
O592        H617   0.965       .  S
C593       C1178   1.480       .  S
C594       C1214   1.481       .  S
C595       C1272   1.471       .  S
O596        H632   0.990       .  S
O597        C599   1.287       .  A
O598        C599   1.285       .  A
C599        C977   1.483       .  S
O600       Zr601   2.440       .  S
O600        H629   0.990       .  S
Zr601       O604   2.439       .  S
Zr601       O605   2.442       .  S
Zr601       O606   2.409       .  S
O602        C607   1.286       .  A
O603        H620   0.990       .  S
O603        H635   0.990       .  S
O604        H621   0.990       .  S
O605        H625   0.990       .  S
O605        H634   0.989       .  S
O606        C607   1.277       .  A
C607        C981   1.475       .  S
O608        H627   0.990       .  S
O608        H631   0.991       .  S
O609        H623   0.990       .  S
O609        H630   0.990       .  S
O610        C614   1.284       .  A
O611        C614   1.288       .  A
O612        H622   0.990       .  S
O613        H626   0.990       .  S
C614        C973   1.474       .  S
C637        C638   1.405       .  A
C637        C642   1.417       .  A
C637        C982   1.494       .  S
C638        C639   1.391       .  A
C638        H643   1.081       .  S
C639        C640   1.390       .  A
C639        C964   1.464       .  S
C640        C641   1.404       .  A
C640        H644   1.084       .  S
C641        C642   1.414       .  A
C641       C1001   1.490       .  S
C642        H645   1.083       .  S
C646        C647   1.414       .  A
C646        C651   1.402       .  A
C646       C1014   1.488       .  S
C647        C648   1.415       .  A
C647        H652   1.083       .  S
C648        C649   1.406       .  A
C648       C1006   1.488       .  S
C649        C650   1.386       .  A
C649        H653   1.082       .  S
C650        C651   1.384       .  A
C650        C954   1.463       .  S
C651        H654   1.083       .  S
C655        C656   1.406       .  A
C655        C660   1.420       .  A
C655        C990   1.503       .  S
C656        C657   1.394       .  A
C656        H661   1.083       .  S
C657        C658   1.395       .  A
C657        C944   1.477       .  S
C658        C659   1.411       .  A
C658        H662   1.082       .  S
C659        C660   1.422       .  A
C659       C1018   1.507       .  S
C660        H663   1.083       .  S
C664        C665   1.402       .  A
C664        C669   1.424       .  A
C664        C994   1.504       .  S
C665        C666   1.387       .  A
C665        H670   1.081       .  S
C666        C667   1.392       .  A
C666        C934   1.466       .  S
C667        C668   1.408       .  A
C667        H671   1.083       .  S
C668        C669   1.425       .  A
C668        C978   1.505       .  S
C669        H672   1.083       .  S
C673        C674   1.406       .  A
C673        C678   1.429       .  A
C673       C1056   1.507       .  S
C674        C675   1.385       .  A
C674        H679   1.082       .  S
C675        C676   1.385       .  A
C675        C924   1.461       .  S
C676        C677   1.406       .  A
C676        H680   1.082       .  S
C677        C678   1.428       .  A
C677       C1089   1.511       .  S
C678        H681   1.083       .  S
C682        C683   1.428       .  A
C682        C687   1.406       .  A
C682       C1052   1.512       .  S
C683        C684   1.427       .  A
C683        H688   1.083       .  S
C684        C685   1.404       .  A
C684       C1044   1.508       .  S
C685        C686   1.387       .  A
C685        H689   1.082       .  S
C686        C687   1.390       .  A
C686        C914   1.465       .  S
C687        H690   1.080       .  S
C691        C692   1.406       .  A
C691        C696   1.431       .  A
C691       C1040   1.517       .  S
C692        C693   1.390       .  A
C692        H697   1.083       .  S
C693        C694   1.390       .  A
C693        C907   1.468       .  S
C694        C695   1.406       .  A
C694        H698   1.080       .  S
C695        C696   1.433       .  A
C695       C1068   1.517       .  S
C696        H699   1.083       .  S
C700        C701   1.403       .  A
C700        C705   1.425       .  A
C700       C1094   1.506       .  S
C701        C702   1.386       .  A
C701        H706   1.081       .  S
C702        C703   1.385       .  A
C702        C894   1.460       .  S
C703        C704   1.407       .  A
C703        H707   1.083       .  S
C704        C705   1.425       .  A
C704       C1064   1.502       .  S
C705        H708   1.083       .  S
C709        C710   1.407       .  A
C709        C714   1.417       .  A
C709       C1036   1.494       .  S
C710        C711   1.389       .  A
C710        H715   1.082       .  S
C711        C712   1.389       .  A
C711        C884   1.467       .  S
C712        C713   1.405       .  A
C712        H716   1.085       .  S
C713        C714   1.414       .  A
C713        C974   1.490       .  S
C714        H717   1.083       .  S
C718        C719   1.407       .  A
C718        C723   1.428       .  A
C718       C1048   1.508       .  S
C719        C720   1.388       .  A
C719        H724   1.082       .  S
C720        C721   1.389       .  A
C720        C874   1.469       .  S
C721        C722   1.406       .  A
C721        H725   1.082       .  S
C722        C723   1.427       .  A
C722        C986   1.511       .  S
C723        H726   1.083       .  S
C727        C728   1.421       .  A
C727        C732   1.405       .  A
C727       C1060   1.502       .  S
C728        C729   1.421       .  A
C728        H733   1.083       .  S
C729        C730   1.406       .  A
C729        C998   1.496       .  S
C730        C731   1.386       .  A
C730        H734   1.084       .  S
C731        C732   1.386       .  A
C731        C864   1.464       .  S
C732        H735   1.081       .  S
C736        C737   1.410       .  A
C736        C741   1.426       .  A
C736       C1086   1.511       .  S
C737        C738   1.393       .  A
C737        H742   1.083       .  S
C738        C739   1.394       .  A
C738        C854   1.477       .  S
C739        C740   1.406       .  A
C739        H743   1.083       .  S
C740        C741   1.426       .  A
C740       C1010   1.511       .  S
C741        H744   1.083       .  S
O745       Zr781   2.415   1_565  S
O745        C756   1.289       .  A
O746       Zr780   2.413   1_565  S
O746        C757   1.288       .  A
O747       Zr753   2.431   1_556  S
O747        C758   1.292       .  A
O748       Zr753   2.425       .  S
O748        C759   1.290       .  A
O749       Zr783   2.439   1_465  S
O749        C759   1.292       .  A
O750       Zr782   2.424   1_565  S
O750        C758   1.290       .  A
O751       Zr753   2.429       .  S
O751        C757   1.291       .  A
O752       Zr753   2.411   1_656  S
O752        C756   1.288       .  A
Zr753       O754   2.328   1_565  S
Zr753       O755   2.331   1_464  S
Zr753       O763   2.337   1_465  S
Zr753       O761   2.323   1_564  S
O754       Zr780   2.326       .  S
O754       Zr783   2.327   1_455  S
O755       Zr781   2.327       .  S
O755       Zr782   2.328   1_655  S
C756       C1279   1.460       .  S
C757       C1243   1.465       .  S
C758       C1189   1.473       .  S
C759       C1153   1.468       .  S
H760        O761   0.965       .  S
O761       Zr780   2.328   1_556  S
O761       Zr782   2.322       .  S
H762        O763   0.966   1_565  S
O763       Zr781   2.331   1_554  S
O763       Zr783   2.329       .  S
O764       Zr780   2.413       .  S
O764        C787   1.289       .  A
O765       Zr781   2.411   1_554  S
O765        C788   1.288       .  A
O766       Zr782   2.429       .  S
O766        C789   1.291       .  A
O767       Zr783   2.425   1_455  S
O767        C790   1.290       .  A
O768       Zr783   2.431       .  S
O768        C791   1.291       .  A
O769       Zr782   2.418   1_655  S
O769        C792   1.289       .  A
O770       Zr784   2.456   1_556  S
O770        C793   1.295       .  A
O771       Zr784   2.440       .  S
O771        C794   1.293       .  A
O772       Zr782   2.408       .  S
O772        C793   1.287   1_455  A
O773       Zr783   2.411       .  S
O773        C794   1.288       .  A
O774       Zr780   2.410   1_556  S
O774        C789   1.287       .  A
O775       Zr781   2.429       .  S
O775        C792   1.291       .  A
O776       Zr781   2.425   1_554  S
O776        C791   1.290       .  A
O777       Zr780   2.426       .  S
O777        C790   1.290       .  A
O778       Zr784   2.454   1_455  S
O778        C787   1.295       .  A
O779       Zr784   2.451       .  S
O779        C788   1.295       .  A
Zr780       O786   2.336   1_554  S
Zr780       O798   2.330       .  S
Zr781       O785   2.328   1_556  S
Zr781       O796   2.334       .  S
Zr782       O786   2.335       .  S
Zr782       O796   2.337   1_455  S
Zr783       O785   2.333       .  S
Zr783       O798   2.348   1_655  S
Zr784       O785   2.344       .  S
Zr784       O786   2.341   1_654  S
Zr784       O798   2.356   1_655  S
Zr784       O796   2.344   1_554  S
C787       C1025   1.474       .  S
C788       C1261   1.474       .  S
C789       C1171   1.461       .  S
C790       C1072   1.471       .  S
C791       C1135   1.472       .  S
C792       C1225   1.469       .  S
C793       C1207   1.462       .  S
C794       C1109   1.461       .  S
H795        O796   0.966       .  S
H797        O798   0.966       .  S
O799       Zr835   2.436       .  S
O799        C810   1.292       .  A
O800       Zr834   2.458       .  S
O800        C811   1.295       .  A
O801       Zr807   2.447       .  S
O801        C812   1.294       .  A
O802       Zr807   2.420       .  S
O802        C813   1.289       .  A
O803       Zr837   2.434       .  S
O803        C813   1.292       .  A
O804       Zr836   2.389       .  S
O804        C812   1.284       .  A
O805       Zr807   2.410       .  S
O805        C811   1.288       .  A
O806       Zr807   2.408       .  S
O806        C810   1.287       .  A
Zr807       O808   2.334       .  S
Zr807       O809   2.321       .  S
Zr807       O817   2.333       .  S
Zr807       O815   2.331       .  S
O808       Zr834   2.343       .  S
O808       Zr837   2.337       .  S
O809       Zr835   2.324       .  S
O809       Zr836   2.327       .  S
C810        C967   1.464       .  S
C811        C947   1.473       .  S
C812        C957   1.462       .  S
C813        C937   1.468       .  S
H814        O815   0.966       .  S
O815       Zr834   2.336       .  S
O815       Zr836   2.332       .  S
H816        O817   0.966       .  S
O817       Zr835   2.322       .  S
O817       Zr837   2.333       .  S
O818       Zr834   2.439       .  S
O818        C841   1.293       .  A
O819       Zr835   2.415       .  S
O819        C842   1.288       .  A
O820       Zr836   2.424       .  S
O820        C843   1.290       .  A
O821       Zr837   2.428       .  S
O821        C844   1.291       .  A
O822       Zr837   2.431       .  S
O822        C845   1.292       .  A
O823       Zr836   2.420       .  S
O823        C846   1.289       .  A
O824       Zr838   2.431       .  S
O824        C847   1.291       .  A
O825       Zr838   2.413       .  S
O825        C848   1.288       .  A
O826       Zr836   2.404       .  S
O826        C847   1.287       .  A
O827       Zr837   2.434       .  S
O827        C848   1.292       .  A
O828       Zr834   2.436       .  S
O828        C843   1.291       .  A
O829       Zr835   2.420       .  S
O829        C846   1.290       .  A
O830       Zr835   2.418       .  S
O830        C845   1.289       .  A
O831       Zr834   2.421       .  S
O831        C844   1.290       .  A
O832       Zr838   2.414       .  S
O832        C841   1.289       .  A
O833       Zr838   2.442       .  S
O833        C842   1.293       .  A
Zr834       O840   2.341       .  S
Zr834       O852   2.348       .  S
Zr835       O839   2.335       .  S
Zr835       O850   2.337       .  S
Zr836       O840   2.319       .  S
Zr836       O850   2.330       .  S
Zr837       O839   2.332       .  S
Zr837       O852   2.337       .  S
Zr838       O839   2.330       .  S
Zr838       O840   2.339       .  S
Zr838       O852   2.344       .  S
Zr838       O850   2.325       .  S
C841        C927   1.464       .  S
C842        C904   1.466       .  S
C843        C857   1.470       .  S
C844        C877   1.468       .  S
C845        C887   1.471       .  S
C846        C867   1.464       .  S
C847        C897   1.469       .  S
C848        C917   1.467       .  S
H849        O850   0.966       .  S
H851        O852   0.966       .  S
C853        C854   1.402       .  A
C853        C858   1.388       .  A
C853        H859   1.083       .  S
C854        C855   1.406       .  A
C855        C856   1.402       .  A
C855        H860   1.083       .  S
C856        C857   1.406       .  A
C856        H861   1.083       .  S
C857        C858   1.402       .  A
C858        H862   1.084       .  S
C863        C864   1.402       .  A
C863        C868   1.390       .  A
C863        H869   1.084       .  S
C864        C865   1.399       .  A
C865        C866   1.392       .  A
C865        H870   1.083       .  S
C866        C867   1.405       .  A
C866        H871   1.083       .  S
C867        C868   1.403       .  A
C868        H872   1.083       .  S
C873        C874   1.403       .  A
C873        C878   1.396       .  A
C873        H879   1.083       .  S
C874        C875   1.400       .  A
C875        C876   1.389       .  A
C875        H880   1.083       .  S
C876        C877   1.404       .  A
C876        H881   1.083       .  S
C877        C878   1.405       .  A
C878        H882   1.083       .  S
C883        C884   1.402       .  A
C883        C888   1.392       .  A
C883        H889   1.083       .  S
C884        C885   1.400       .  A
C885        C886   1.393       .  A
C885        H890   1.083       .  S
C886        C887   1.407       .  A
C886        H891   1.083       .  S
C887        C888   1.404       .  A
C888        H892   1.083       .  S
C893        C894   1.397       .  A
C893        C898   1.386       .  A
C893        H899   1.084       .  S
C894        C895   1.401       .  A
C895        C896   1.396       .  A
C895        H900   1.083       .  S
C896        C897   1.406       .  A
C896        H901   1.083       .  S
C897        C898   1.406       .  A
C898        H902   1.083       .  S
C903        C904   1.405       .  A
C903        C908   1.394       .  A
C903        H909   1.084       .  S
C904        C905   1.402       .  A
C905        C906   1.393       .  A
C905        H910   1.083       .  S
C906        C907   1.403       .  A
C906        H911   1.083       .  S
C907        C908   1.401       .  A
C908        H912   1.083       .  S
C913        C914   1.403       .  A
C913        C918   1.393       .  A
C913        H919   1.083       .  S
C914        C915   1.399       .  A
C915        C916   1.391       .  A
C915        H920   1.083       .  S
C916        C917   1.406       .  A
C916        H921   1.083       .  S
C917        C918   1.403       .  A
C918        H922   1.083       .  S
C923        C924   1.402       .  A
C923        C928   1.393       .  A
C923        H929   1.084       .  S
C924        C925   1.398       .  A
C925        C926   1.391       .  A
C925        H930   1.083       .  S
C926        C927   1.405       .  A
C926        H931   1.083       .  S
C927        C928   1.403       .  A
C928        H932   1.083       .  S
C933        C934   1.400       .  A
C933        C938   1.391       .  A
C933        H939   1.083       .  S
C934        C935   1.402       .  A
C935        C936   1.395       .  A
C935        H940   1.083       .  S
C936        C937   1.404       .  A
C936        H941   1.083       .  S
C937        C938   1.405       .  A
C938        H942   1.083       .  S
C943        C944   1.401       .  A
C943        C948   1.390       .  A
C943        H949   1.084       .  S
C944        C945   1.406       .  A
C945        C946   1.403       .  A
C945        H950   1.083       .  S
C946        C947   1.404       .  A
C946        H951   1.083       .  S
C947        C948   1.405       .  A
C948        H952   1.084       .  S
C953        C954   1.399       .  A
C953        C958   1.391       .  A
C953        H959   1.083       .  S
C954        C955   1.404       .  A
C955        C956   1.391       .  A
C955        H960   1.084       .  S
C956        C957   1.400       .  A
C956        H961   1.083       .  S
C957        C958   1.406       .  A
C958        H962   1.083       .  S
C963        C964   1.400       .  A
C963        C968   1.393       .  A
C963        H969   1.083       .  S
C964        C965   1.401       .  A
C965        C966   1.391       .  A
C965        H970   1.083       .  S
C966        C967   1.402       .  A
C966        H971   1.083       .  S
C967        C968   1.406       .  A
C968        H972   1.083       .  S
C973        C974   1.348       .  D
C973        H975   1.089       .  S
C974        H976   1.085       .  S
C977        C978   1.357       .  D
C977        H979   1.085       .  S
C978        H980   1.086       .  S
C981        C982   1.355       .  D
C981        H983   1.084       .  S
C982        H984   1.086       .  S
C985        C986   1.360       .  D
C985        H987   1.086       .  S
C986        H988   1.085       .  S
C989        C990   1.355       .  D
C989        H991   1.086       .  S
C990        H992   1.086       .  S
C993        C994   1.360       .  D
C993        H995   1.084       .  S
C994        H996   1.086       .  S
C997        C998   1.354       .  D
C997        H999   1.087       .  S
C998       H1000   1.086       .  S
C1001      C1002   1.349       .  D
C1001      H1003   1.086       .  S
C1002      H1004   1.086       .  S
C1005      C1006   1.349       .  D
C1005      H1007   1.086       .  S
C1006      H1008   1.086       .  S
C1009      C1010   1.361       .  D
C1009      H1011   1.085       .  S
C1010      H1012   1.086       .  S
C1013      C1014   1.353       .  D
C1013      H1015   1.086       .  S
C1014      H1016   1.086       .  S
C1017      C1018   1.357       .  D
C1017      H1019   1.085       .  S
C1018      H1020   1.086       .  S
C1021      C1022   1.407   1_556  A
C1021      C1026   1.404       .  A
C1021      H1027   1.083       .  S
C1022      C1023   1.402       .  A
C1023      C1024   1.389       .  A
C1023      H1028   1.084       .  S
C1024      C1025   1.404       .  A
C1024      H1029   1.084       .  S
C1025      C1026   1.405   1_554  A
C1026      H1030   1.083       .  S
C1031      C1032   1.358       .  D
C1031      H1033   1.086       .  S
C1032      H1034   1.085       .  S
C1035      C1036   1.353       .  D
C1035      H1037   1.084       .  S
C1036      H1038   1.086       .  S
C1039      C1040   1.364       .  D
C1039      H1041   1.086       .  S
C1040      H1042   1.085       .  S
C1043      C1044   1.360       .  D
C1043      H1045   1.085       .  S
C1044      H1046   1.086       .  S
C1047      C1048   1.361       .  D
C1047      H1049   1.085       .  S
C1048      H1050   1.086       .  S
C1051      C1052   1.363       .  D
C1051      H1053   1.083       .  S
C1052      H1054   1.086       .  S
C1055      C1056   1.360       .  D
C1055      H1057   1.085       .  S
C1056      H1058   1.086       .  S
C1059      C1060   1.357       .  D
C1059      H1061   1.084       .  S
C1060      H1062   1.086       .  S
C1063      C1064   1.357       .  D
C1063      H1065   1.086       .  S
C1064      H1066   1.086       .  S
C1067      C1068   1.366       .  D
C1067      H1069   1.083       .  S
C1068      H1070   1.086       .  S
C1071      C1072   1.405       .  A
C1071      C1076   1.394       .  A
C1071      H1077   1.083       .  S
C1072      C1073   1.405       .  A
C1073      C1074   1.395       .  A
C1073      H1078   1.083       .  S
C1074      C1075   1.402       .  A
C1074      H1079   1.083       .  S
C1075      C1076   1.401       .  A
C1076      H1080   1.083       .  S
C1081      C1082   1.352       .  D
C1081      H1083   1.086       .  S
C1082      H1084   1.086       .  S
C1085      C1086   1.360       .  D
C1085      H1087   1.086       .  S
C1086      H1088   1.086       .  S
C1089      C1090   1.361       .  D
C1089      H1091   1.085       .  S
C1090      H1092   1.085       .  S
C1093      C1094   1.361       .  D
C1093      H1095   1.083       .  S
C1094      H1096   1.086       .  S
C1097      C1098   1.358       .  D
C1097      H1099   1.086       .  S
C1098      H1100   1.086       .  S
C1101      C1102   1.357       .  D
C1101      H1103   1.084       .  S
C1102      H1104   1.086       .  S
C1105      C1106   1.402   1_455  A
C1105      C1110   1.394       .  A
C1105      H1111   1.083       .  S
C1106      C1107   1.402       .  A
C1107      C1108   1.391       .  A
C1107      H1112   1.084       .  S
C1108      C1109   1.404       .  A
C1108      H1113   1.084       .  S
C1109      C1110   1.401   1_655  A
C1110      H1114   1.083       .  S
C1115      C1116   1.362       .  D
C1115      H1117   1.086       .  S
C1116      H1118   1.086       .  S
C1119      C1120   1.363       .  D
C1119      H1121   1.085       .  S
C1120      H1122   1.085       .  S
C1123      C1124   1.354       .  D
C1123      H1125   1.087       .  S
C1124      H1126   1.086       .  S
C1127      C1128   1.356       .  D
C1127      H1129   1.086       .  S
C1128      H1130   1.084       .  S
C1131      C1132   1.403       .  A
C1131      C1136   1.393       .  A
C1131      H1137   1.083       .  S
C1132      C1133   1.402       .  A
C1133      C1134   1.395       .  A
C1133      H1138   1.083       .  S
C1134      C1135   1.406       .  A
C1134      H1139   1.083       .  S
C1135      C1136   1.404       .  A
C1136      H1140   1.083       .  S
C1141      C1142   1.360       .  D
C1141      H1143   1.086       .  S
C1142      H1144   1.083       .  S
C1145      C1146   1.357       .  D
C1145      H1147   1.085       .  S
C1146      H1148   1.086       .  S
C1149      C1150   1.405       .  A
C1149      C1154   1.398       .  A
C1149      H1155   1.083       .  S
C1150      C1151   1.401   1_455  A
C1151      C1152   1.392       .  A
C1151      H1156   1.083       .  S
C1152      C1153   1.403   1_655  A
C1152      H1157   1.084       .  S
C1153      C1154   1.403       .  A
C1154      H1158   1.083       .  S
C1159      C1160   1.350       .  D
C1159      H1161   1.086       .  S
C1160      H1162   1.086       .  S
C1163      C1164   1.350       .  D
C1163      H1165   1.086       .  S
C1164      H1166   1.086       .  S
C1167      C1168   1.402       .  A
C1167      C1172   1.388       .  A
C1167      H1173   1.084       .  S
C1168      C1169   1.401       .  A
C1169      C1170   1.393       .  A
C1169      H1174   1.083       .  S
C1170      C1171   1.404       .  A
C1170      H1175   1.083       .  S
C1171      C1172   1.402       .  A
C1172      H1176   1.084       .  S
C1177      C1178   1.356       .  D
C1177      H1179   1.086       .  S
C1178      H1180   1.082       .  S
C1181      C1182   1.347       .  D
C1181      H1183   1.089       .  S
C1182      H1184   1.086       .  S
C1185      C1186   1.401       .  A
C1185      C1190   1.395       .  A
C1185      H1191   1.083       .  S
C1186      C1187   1.401       .  A
C1187      C1188   1.393       .  A
C1187      H1192   1.083   1_455  S
C1188      C1189   1.405       .  A
C1188      H1193   1.083   1_455  S
C1189      C1190   1.407       .  A
C1190      H1194   1.083       .  S
C1195      C1196   1.357       .  D
C1195      H1197   1.086       .  S
C1196      H1198   1.087       .  S
C1199      C1200   1.358       .  D
C1199      H1201   1.086       .  S
C1200      H1202   1.084       .  S
C1203      C1204   1.401       .  A
C1203      C1208   1.392       .  A
C1203      H1209   1.083       .  S
C1204      C1205   1.407   1_655  A
C1205      C1206   1.398       .  A
C1205      H1210   1.083       .  S
C1206      C1207   1.400   1_455  A
C1206      H1211   1.083       .  S
C1207      C1208   1.404       .  A
C1208      H1212   1.084       .  S
C1213      C1214   1.354       .  D
C1213      H1215   1.086       .  S
C1214      H1216   1.087       .  S
C1217      C1218   1.361       .  D
C1217      H1219   1.086       .  S
C1218      H1220   1.082       .  S
C1221      C1222   1.400       .  A
C1221      C1226   1.392       .  A
C1221      H1227   1.083       .  S
C1222      C1223   1.402       .  A
C1223      C1224   1.395       .  A
C1223      H1228   1.083       .  S
C1224      C1225   1.405       .  A
C1224      H1229   1.083       .  S
C1225      C1226   1.405       .  A
C1226      H1230   1.083       .  S
C1231      C1232   1.355       .  D
C1231      H1233   1.085       .  S
C1232      H1234   1.086       .  S
C1235      C1236   1.354       .  D
C1235      H1237   1.086       .  S
C1236      H1238   1.086       .  S
C1239      C1240   1.400   1_556  A
C1239      C1244   1.392       .  A
C1239      H1245   1.083       .  S
C1240      C1241   1.402       .  A
C1241      C1242   1.390       .  A
C1241      H1246   1.083       .  S
C1242      C1243   1.402       .  A
C1242      H1247   1.083       .  S
C1243      C1244   1.407   1_554  A
C1244      H1248   1.083       .  S
C1249      C1250   1.355       .  D
C1249      H1251   1.086       .  S
C1250      H1252   1.086       .  S
C1253      C1254   1.356       .  D
C1253      H1255   1.086       .  S
C1254      H1256   1.086       .  S
C1257      C1258   1.405       .  A
C1257      C1262   1.397       .  A
C1257      H1263   1.083       .  S
C1258      C1259   1.400   1_554  A
C1259      C1260   1.393       .  A
C1259      H1264   1.083       .  S
C1260      C1261   1.407   1_556  A
C1260      H1265   1.083       .  S
C1261      C1262   1.404       .  A
C1262      H1266   1.083       .  S
C1267      C1268   1.355       .  D
C1267      H1269   1.086       .  S
C1268      H1270   1.084       .  S
C1271      C1272   1.353       .  D
C1271      H1273   1.086       .  S
C1272      H1274   1.087       .  S
C1275      C1276   1.401   1_554  A
C1275      C1280   1.388       .  A
C1275      H1281   1.083       .  S
C1276      C1277   1.400       .  A
C1277      C1278   1.390       .  A
C1277      H1282   1.083       .  S
C1278      C1279   1.404       .  A
C1278      H1283   1.083       .  S
C1279      C1280   1.403   1_556  A
C1280      H1284   1.083       .  S
