geometry optimzed in LAMMPS
_audit_creation_date              2020-12-01 
_audit_creation_method            'lammps2cif' 
_symmetry_space_group_name_H-M    'P1' 
_symmetry_Int_Tables_number       1 
_symmetry_cell_setting            triclinic 
loop_ 
_symmetry_equiv_pos_as_xyz 
  x,y,z 
_cell_length_a                    34.56770262 
_cell_length_b                    34.552408054967955 
_cell_length_c                    66.2465818379213 
_cell_angle_alpha                 90.0123038940063 
_cell_angle_beta                  90.03542845496531 
_cell_angle_gamma                 120.26517676894908 
loop_ 
_atom_site_label 
_atom_site_type_symbol 
_atom_site_fract_x 
_atom_site_fract_y 
_atom_site_fract_z 
_atom_site_charge 
In1        In  0.64815009  0.78571771  0.43714277     1.36900
C2          C  0.67447681  0.85348212  0.46298012     0.78500
O3          O  0.65225746  0.73848314  0.45903956    -0.59900
O4          O  0.70788528  0.77529165  0.43968317    -0.50900
C5          C  0.56604645  0.71491639  0.43227386     0.71200
O6          O  0.57666610  0.74154407  0.44703953    -0.45700
C7          C  0.66333574  0.83322307  0.40321901     0.75900
O8          O  0.63356721  0.82618206  0.45942953    -0.57600
O9          O  0.67602197  0.80485226  0.40525485    -0.47700
O10         O  0.70120644  0.84515999  0.45363704    -0.54000
C11         C  0.69129714  0.74808233  0.45422298     0.86000
O12         O  0.59719877  0.72560538  0.41962524    -0.55900
O13         O  0.64161483  0.83533278  0.41802066    -0.59200
In14       In  0.85304897  0.19619357  0.57647817     1.36900
C15         C  0.80483309  0.12126399  0.55543270     0.78500
O16         O  0.88936706  0.21409249  0.54713082    -0.59900
O17         O  0.92810735  0.22263889  0.57338389    -0.50900
C18         C  0.84992275  0.27150840  0.58082313     0.71200
O19         O  0.82022955  0.23785197  0.57128931    -0.45700
C20         C  0.82530154  0.15688347  0.61236683     0.75900
O21         O  0.80018727  0.15517345  0.55338635    -0.57600
O22         O  0.86476399  0.17107821  0.60599164    -0.47700
O23         O  0.83336662  0.12577148  0.56852620    -0.54000
C24         C  0.92736900  0.22543500  0.55432743     0.86000
O25         O  0.88074542  0.26620746  0.58800341    -0.55900
O26         O  0.80153349  0.16561410  0.60090881    -0.59200
In27       In  0.84892753  0.63949503  0.60123238     1.36900
C28         C  0.79570975  0.65813192  0.62305892     0.78500
O29         O  0.88633595  0.64871466  0.62988648    -0.59900
O30         O  0.92004304  0.69686066  0.60695351    -0.50900
C31         C  0.84750597  0.56211914  0.59573671     0.71200
O32         O  0.81732691  0.56497015  0.60518282    -0.45700
C33         C  0.82425635  0.65470714  0.56527369     0.75900
O34         O  0.79260560  0.62008170  0.62346528    -0.57600
O35         O  0.86453333  0.67648287  0.57125261    -0.47700
O36         O  0.82582351  0.68602176  0.61147876    -0.54000
C37         C  0.92144404  0.68392504  0.62468190     0.86000
O38         O  0.87774721  0.59884724  0.58852734    -0.55900
O39         O  0.79817577  0.62401037  0.57710164    -0.59200
In40       In  0.64544646  0.83946313  0.74060146     1.36900
C41         C  0.66619522  0.78925022  0.71739580     0.78500
O42         O  0.65143875  0.87689800  0.71216993    -0.59900
O43         O  0.69794795  0.91302891  0.73534737    -0.50900
C44         C  0.56622098  0.83427403  0.74648324     0.71200
O45         O  0.57069327  0.80605825  0.73614606    -0.45700
C46         C  0.66547452  0.81737316  0.77654510     0.75900
O47         O  0.62629505  0.78053027  0.71965902    -0.57600
O48         O  0.68867608  0.85598996  0.76891049    -0.47700
O49         O  0.69460355  0.82291795  0.72720468    -0.54000
C50         C  0.68448296  0.91364852  0.71762911     0.86000
O51         O  0.60225368  0.86440802  0.75432933    -0.55900
O52         O  0.63127057  0.79157206  0.76629756    -0.59200
In53       In  0.20407958  0.84626326  0.76590794     1.36900
C54         C  0.13122624  0.79702273  0.78795696     0.78500
O55         O  0.22349033  0.91873188  0.77154790    -0.59900
O56         O  0.23532472  0.88321385  0.79451050    -0.50900
C57         C  0.27657031  0.83915970  0.75965316     0.71200
O58         O  0.24239599  0.80969723  0.76889406    -0.45700
C59         C  0.16360356  0.82494260  0.72997560     0.75900
O60         O  0.16323242  0.78924376  0.78733561    -0.57600
O61         O  0.18133190  0.86424400  0.73707283    -0.47700
O62         O  0.13684168  0.82952065  0.77721383    -0.54000
C63         C  0.23756198  0.91934744  0.78925994     0.86000
O64         O  0.27311192  0.87179775  0.75334361    -0.55900
O65         O  0.16917406  0.79805382  0.74072128    -0.66400
In66       In  0.79944578  0.63758385  0.90696769     1.36900
C67         C  0.87090265  0.66058153  0.88391629     0.78500
O68         O  0.78363043  0.69337622  0.90118034    -0.59900
O69         O  0.76597808  0.64304830  0.87903107    -0.50900
C70         C  0.72473949  0.55859797  0.91268879     0.71200
O71         O  0.75700238  0.56310811  0.90198528    -0.45700
C72         C  0.84015339  0.65439893  0.94320132     0.75900
O73         O  0.84041729  0.62014218  0.88604581    -0.57600
O74         O  0.82215129  0.67605670  0.93668112    -0.47700
O75         O  0.86475776  0.68808564  0.89388036    -0.54000
C76         C  0.76688505  0.67876009  0.88389876     0.86000
O77         O  0.73120531  0.59454721  0.92075471    -0.55900
O78         O  0.83542308  0.62342002  0.93156473    -0.59200
In79       In  0.14535310  0.33901063  0.09906409     1.36900
C80         C  0.19842301  0.31700153  0.11962584     0.78500
O81         O  0.10658055  0.32906917  0.12757800    -0.59900
O82         O  0.07524073  0.27912592  0.10510752    -0.50900
C83         C  0.15064728  0.41946522  0.09563240     0.71200
O84         O  0.18346855  0.41512297  0.10074614    -0.45700
C85         C  0.16403620  0.32495408  0.06126719     0.75900
O86         O  0.20154651  0.35490212  0.12140676    -0.57600
O87         O  0.12517766  0.30231472  0.06873993    -0.47700
O88         O  0.16862276  0.29128256  0.10739923    -0.54000
C89         C  0.07275884  0.29224733  0.12265413     0.86000
O90         O  0.11535374  0.38275367  0.09191387    -0.55900
O91         O  0.19163005  0.35566574  0.07268062    -0.59200
In92       In  0.35481570  0.14235289  0.24052007     1.36900
C93         C  0.33250443  0.18650932  0.21404260     0.78500
O94         O  0.35153428  0.09515088  0.21656430    -0.59900
O95         O  0.29506438  0.07215851  0.23565163    -0.50900
C96         C  0.43497440  0.14989950  0.24693582     0.71200
O97         O  0.42879785  0.17349186  0.23418923    -0.45700
C98         C  0.33684072  0.16905628  0.27568540     0.75900
O99         O  0.37283916  0.20025958  0.21887782    -0.57600
O100        O  0.32521693  0.12857610  0.27234752    -0.47700
O101        O  0.30449726  0.15100661  0.22291087    -0.54000
C102        C  0.31239984  0.06416217  0.22055500     0.86000
O103        O  0.40043567  0.12377772  0.25692915    -0.55900
O104        O  0.35804529  0.19509586  0.26133441    -0.59200
In105      In  0.79638709  0.13705162  0.26872784     1.36900
C106        C  0.86843367  0.18283750  0.29228631     0.78500
O107        O  0.75414235  0.09723880  0.29503874    -0.59900
O108        O  0.77894651  0.06569531  0.27584804    -0.50900
C109        C  0.72607668  0.14797693  0.26176228     0.71200
O110        O  0.75614183  0.17091691  0.27458477    -0.45700
C111        C  0.84128685  0.15593907  0.23379688     0.75900
O112        O  0.84153712  0.19674719  0.28863143    -0.57600
O113        O  0.81217850  0.11616753  0.23846388    -0.47700
O114        O  0.85793173  0.14601534  0.28396925    -0.54000
C115        C  0.75703424  0.06295202  0.29159910     0.86000
O116        O  0.73354265  0.12138723  0.25167113    -0.55900
O117        O  0.84430579  0.18520038  0.24610190    -0.59200
In118      In  0.20516564  0.33807188  0.41041397     1.36900
C119        C  0.13441478  0.31466697  0.38640165     0.78500
O120        O  0.24766974  0.33569392  0.38533495    -0.59900
O121        O  0.21883939  0.28029288  0.40515265    -0.50900
C122        C  0.27600367  0.41990524  0.41707172     0.71200
O123        O  0.24570622  0.41235959  0.40437226    -0.45700
C124        C  0.16214620  0.32139967  0.44602770     0.75900
O125        O  0.16596381  0.35477155  0.38798002    -0.57600
O126        O  0.18508788  0.30353843  0.44120448    -0.47700
O127        O  0.13973401  0.28725478  0.39687871    -0.54000
C128        C  0.24251158  0.29786667  0.38959942     0.86000
O129        O  0.26958668  0.38547462  0.42662159    -0.55900
O130        O  0.16301739  0.34843345  0.43301790    -0.59200
In131      In  0.15063017  0.79067399  0.07535984     1.36900
C132        C  0.20102896  0.86417040  0.05317104     0.78500
O133        O  0.11502963  0.76386865  0.04606058    -0.59900
O134        O  0.07722970  0.76944717  0.06984101    -0.50900
C135        C  0.15478128  0.71589800  0.08185267     0.71200
O136        O  0.18797587  0.75199290  0.07559283    -0.45700
C137        C  0.16971884  0.82898580  0.11194807     0.75900
O138        O  0.20221332  0.82842277  0.05088907    -0.57600
O139        O  0.13316361  0.81776861  0.10297925    -0.47700
O140        O  0.17590206  0.86257030  0.06727299    -0.54000
C141        C  0.07781297  0.75863042  0.05160030     0.86000
O142        O  0.12027738  0.71866123  0.08519352    -0.55900
O143        O  0.19466677  0.81802354  0.10268837    -0.59200
In144      In  0.34624359  0.19743946  0.93282401     1.36900
C145        C  0.32323144  0.12703128  0.95718034     0.78500
O146        O  0.33673175  0.22868365  0.96033343    -0.59900
O147        O  0.29396050  0.21913244  0.93561565    -0.50900
C148        C  0.42677802  0.27056688  0.92700265     0.71200
O149        O  0.42157893  0.23530471  0.93528444    -0.45700
C150        C  0.32915568  0.15596932  0.89696328     0.75900
O151        O  0.36121564  0.16222381  0.95795591    -0.57600
O152        O  0.30288583  0.16687650  0.90507060    -0.47700
O153        O  0.29803110  0.12769006  0.94362529    -0.54000
C154        C  0.30479257  0.23261117  0.95362490     0.86000
O155        O  0.39064879  0.26795851  0.92125822    -0.55900
O156        O  0.36498439  0.16867527  0.90665945    -0.59200
C157        C  0.25035579  0.98242692  0.03251720    -0.27300
C158        C  0.26026049  0.97695015  0.01254112     0.06300
C159        C  0.25337250  0.93492076  0.00645033     0.25900
C160        C  0.23626681  0.89895671  0.02005609    -0.11800
C161        C  0.22474195  0.90391443  0.03983150    -0.25700
C162        C  0.23234171  0.94626172  0.04600357     0.36800
C163        C  0.27702351  0.01498675  0.99810946     0.06300
F164        F  0.26303669  0.92862425  0.98730337    -0.19500
H165        H  0.23045668  0.86670984  0.01488033     0.16200
F166        F  0.22197678  0.95268458  0.06500898    -0.23200
H167        H  0.25547212  0.01454061  0.03751268     0.18000
C168        C  0.25289450  0.01170340  0.98047573     0.26000
C169        C  0.26846980  0.04806080  0.96718759    -0.11700
C170        C  0.30851797  0.08838377  0.97111965    -0.25800
C171        C  0.33268548  0.09159235  0.98878249     0.36900
C172        C  0.31683240  0.05529272  0.00217446    -0.27400
F173        F  0.21351115  0.97379657  0.97641342    -0.19500
H174        H  0.24893888  0.04472213  0.95384919     0.16200
F175        F  0.37106818  0.13005185  0.99338668    -0.23200
H176        H  0.33571198  0.05856364  0.01573557     0.18000
C177        C  0.05428317  0.31219754  0.34605600    -0.27300
C178        C  0.01937877  0.26740183  0.34732835     0.06300
C179        C  0.02143801  0.23966081  0.36228348     0.25900
C180        C  0.05840641  0.25585052  0.37514812    -0.11800
C181        C  0.09432080  0.30003671  0.37342725    -0.25700
C182        C  0.09155208  0.32850281  0.35897648     0.36800
C183        C  0.98230227  0.24839101  0.33233879     0.06300
F184        F  0.98771880  0.19659925  0.36433850    -0.19500
H185        H  0.05918259  0.23337796  0.38631709     0.16200
F186        F  0.12539034  0.37146074  0.35682426    -0.23200
H187        H  0.05337381  0.33406998  0.33459758     0.18000
C188        C  0.95347816  0.26570462  0.32982485     0.26000
C189        C  0.91694011  0.24497340  0.31647680    -0.11700
C190        C  0.90871732  0.20680330  0.30538572    -0.25800
C191        C  0.93877003  0.19070983  0.30743209     0.36900
C192        C  0.97487777  0.21120782  0.32080579    -0.27400
F193        F  0.95958378  0.30145719  0.34085787    -0.19500
H194        H  0.89454638  0.25817961  0.31515314     0.16200
F195        F  0.93321517  0.15482069  0.29666151    -0.23200
H196        H  0.99706976  0.19776643  0.32229048     0.18000
C197        C  0.31485016  0.28359731  0.35063743    -0.27300
C198        C  0.29089277  0.23719495  0.34689355     0.06300
C199        C  0.25388280  0.20999620  0.35938667     0.25900
C200        C  0.23967716  0.22942781  0.37423025    -0.11800
C201        C  0.26173541  0.27626160  0.37671300    -0.25700
C202        C  0.30027511  0.30294970  0.36510496     0.36800
C203        C  0.30282350  0.21878421  0.32891991     0.06300
F204        F  0.22966036  0.16503010  0.35641239    -0.19500
H205        H  0.20999390  0.20812098  0.38293898     0.16200
F206        F  0.32350547  0.34814646  0.36740855    -0.23200
H207        H  0.34427349  0.30528335  0.34182821     0.18000
C208        C  0.31100041  0.24061063  0.31010098     0.26000
C209        C  0.32257013  0.22434390  0.29321697    -0.11700
C210        C  0.32556507  0.18538325  0.29433731    -0.25800
C211        C  0.31735984  0.16316514  0.31303957     0.36900
C212        C  0.30620221  0.17982754  0.33016424    -0.27400
F213        F  0.30647563  0.27716246  0.30777479    -0.19500
H214        H  0.32826353  0.24190259  0.27901923     0.16200
F215        F  0.32127502  0.12616664  0.31490423    -0.23200
H216        H  0.30077865  0.16263091  0.34442652     0.18000
C217        C  0.55254390  0.17092620  0.23695033    -0.27300
C218        C  0.55970358  0.15032193  0.25366191     0.06300
C219        C  0.52597834  0.13042794  0.26841569     0.25900
C220        C  0.48573007  0.13075461  0.26626700    -0.11800
C221        C  0.47855867  0.15149584  0.24953791    -0.25700
C222        C  0.51263169  0.17182712  0.23492849     0.36800
C223        C  0.60246711  0.14997729  0.25559045     0.06300
F224        F  0.53148174  0.10963351  0.28462490    -0.19500
H225        H  0.46007481  0.11461556  0.27767683     0.16200
F226        F  0.50706372  0.19170679  0.21839982    -0.23200
H227        H  0.57812135  0.18660090  0.22546539     0.18000
C228        C  0.61626616  0.13094107  0.24046899     0.26000
C229        C  0.65672388  0.13098290  0.24240273    -0.11700
C230        C  0.68454468  0.15048204  0.25932093    -0.25800
C231        C  0.67076276  0.16980032  0.27437757     0.36900
C232        C  0.63006938  0.16927758  0.27253283    -0.27400
F233        F  0.58998449  0.11118917  0.22408240    -0.19500
H234        H  0.66616956  0.11550324  0.23069767     0.16200
F235        F  0.69593216  0.18813194  0.29119056    -0.23200
H236        H  0.62016387  0.18419488  0.28431171     0.18000
C237        C  0.28966949  0.97858660  0.17945418    -0.27300
C238        C  0.24270478  0.95183082  0.17977570     0.06300
C239        C  0.21900562  0.96018888  0.19485844     0.25900
C240        C  0.24184299  0.99560272  0.20865045    -0.11800
C241        C  0.28867929  0.02330171  0.20773513    -0.25700
C242        C  0.31240247  0.01367807  0.19321499     0.36800
C243        C  0.21962940  0.91618074  0.16405259     0.06300
F244        F  0.17386117  0.93402126  0.19641150    -0.19500
H245        H  0.22275606  0.00204226  0.21971300     0.16200
F246        F  0.35773604  0.03860765  0.19204770    -0.23200
H247        H  0.30891312  0.97309563  0.16813820     0.18000
C248        C  0.18279963  0.91184328  0.15293885     0.26000
C249        C  0.16491524  0.88138455  0.13679780    -0.11700
C250        C  0.18395582  0.85544524  0.13102235    -0.25800
C251        C  0.21999332  0.85897740  0.14243449     0.36900
C252        C  0.23719888  0.88862264  0.15879691    -0.27400
F253        F  0.16604653  0.93919458  0.15666915    -0.19500
H254        H  0.13769372  0.87994686  0.12809044     0.16200
F255        F  0.23948553  0.83459839  0.13750458    -0.23200
H256        H  0.26527956  0.89089842  0.16709482     0.18000
C257        C  0.27880842  0.28586639  0.99773774    -0.27300
C258        C  0.23625973  0.27882640  0.99279254     0.06300
C259        C  0.21707707  0.25853973  0.97414747     0.25900
C260        C  0.23993607  0.24480419  0.96100889    -0.11800
C261        C  0.28198639  0.25063968  0.96637119    -0.25700
C262        C  0.30134738  0.27192010  0.98482677     0.36800
C263        C  0.21283789  0.29232345  0.00767834     0.06300
F264        F  0.17651452  0.25227686  0.96859395    -0.19500
H265        H  0.22433217  0.22871073  0.94690678     0.16200
F266        F  0.34209167  0.27898970  0.99061934    -0.23200
H267        H  0.29427586  0.30135672  0.01194221     0.18000
C268        C  0.17111229  0.26086698  0.01597919     0.26000
C269        C  0.15373625  0.27235979  0.03267193    -0.11700
C270        C  0.17775407  0.31526332  0.04143226    -0.25800
C271        C  0.21815008  0.34735114  0.03229337     0.36900
C272        C  0.23534036  0.33590286  0.01567598    -0.27400
F273        F  0.14882602  0.21813761  0.00896152    -0.19500
H274        H  0.12278933  0.24691436  0.03945398     0.16200
F275        F  0.24202077  0.38953374  0.03984577    -0.23200
H276        H  0.26736798  0.36075754  0.00949139     0.18000
C277        C  0.11704249  0.59162850  0.08400744    -0.27300
C278        C  0.15629332  0.59159813  0.08981189     0.06300
C279        C  0.19551529  0.63367582  0.09289683     0.25900
C280        C  0.19513002  0.67390534  0.09003982    -0.11800
C281        C  0.15553007  0.67340736  0.08467596    -0.25700
C282        C  0.11638379  0.63168678  0.08183266     0.36800
C283        C  0.15578142  0.54777919  0.09215258     0.06300
F284        F  0.23408331  0.63622955  0.09921071    -0.19500
H285        H  0.22568793  0.70555498  0.09246815     0.16200
F286        F  0.07756851  0.62954552  0.07623301    -0.23200
H287        H  0.08662540  0.56048351  0.08073867     0.18000
C288        C  0.11807779  0.50926527  0.10015674     0.26000
C289        C  0.11644557  0.46780902  0.10080805    -0.11700
C290        C  0.15296761  0.46373615  0.09445979    -0.25800
C291        C  0.19142136  0.50227767  0.08732122     0.36900
C292        C  0.19237444  0.54339919  0.08578920    -0.27400
F293        F  0.08302757  0.51166894  0.10792042    -0.19500
H294        H  0.08685187  0.43892239  0.10681644     0.16200
F295        F  0.22758453  0.49988872  0.08113584    -0.23200
H296        H  0.22159881  0.57156747  0.07918007     0.18000
C297        C  0.33092558  0.27375751  0.17904120    -0.27300
C298        C  0.28738165  0.24951477  0.17089611     0.06300
C299        C  0.25951333  0.20479391  0.17713844     0.25900
C300        C  0.27481897  0.18501850  0.19098266    -0.11800
C301        C  0.31819578  0.20903140  0.19911715    -0.25700
C302        C  0.34623846  0.25382055  0.19303911     0.36800
C303        C  0.27025249  0.27040407  0.15625879     0.06300
F304        F  0.21672850  0.18033239  0.17034536    -0.19500
H305        H  0.25238645  0.15061381  0.19541017     0.16200
F306        F  0.38796323  0.27866533  0.20093229    -0.23200
H307        H  0.35322323  0.30807770  0.17449929     0.18000
C308        C  0.27508173  0.31290359  0.15976106     0.26000
C309        C  0.25321651  0.32885909  0.14731094    -0.11700
C310        C  0.22607568  0.30283019  0.13119791    -0.25800
C311        C  0.22366685  0.26171653  0.12694391     0.36900
C312        C  0.24576211  0.24605035  0.13923143    -0.27400
F313        F  0.29874377  0.33797782  0.17585490    -0.19500
H314        H  0.25607735  0.36082768  0.15079554     0.16200
F315        F  0.19905669  0.23591192  0.11117690    -0.23200
H316        H  0.24271309  0.21403224  0.13569394     0.18000
C317        C  0.97042402  0.19881576  0.15019532    -0.27300
C318        C  0.96631614  0.22271249  0.16654037     0.06300
C319        C  0.99537232  0.26955367  0.16711485     0.25900
C320        C  0.02902072  0.29121005  0.15269145    -0.11800
C321        C  0.03418132  0.26750428  0.13673856    -0.25700
C322        C  0.00374769  0.22099969  0.13530959     0.36800
C323        C  0.93377566  0.19991359  0.18355930     0.06300
F324        F  0.99116180  0.29488561  0.18164944    -0.19500
H325        H  0.05123976  0.32706628  0.15402964     0.16200
F326        F  0.00720387  0.19672870  0.12003810    -0.23200
H327        H  0.94877927  0.16282920  0.14923584     0.18000
C328        C  0.88842631  0.16663991  0.18050210     0.26000
C329        C  0.85815339  0.15063645  0.19689811    -0.11700
C330        C  0.87244250  0.16822340  0.21640995    -0.25800
C331        C  0.91794070  0.19946229  0.21951912     0.36900
C332        C  0.94812974  0.21413564  0.20346177    -0.27400
F333        F  0.87282021  0.15117768  0.16167113    -0.19500
H334        H  0.82329037  0.12609553  0.19420417     0.16200
F335        F  0.93339844  0.21598719  0.23825938    -0.23200
H336        H  0.98300469  0.23790270  0.20660182     0.18000
C337        C  0.91387194  0.65199238  0.98533535    -0.27300
C338        C  0.92807331  0.69307473  0.99514336     0.06300
C339        C  0.90934309  0.71920903  0.98906453     0.25900
C340        C  0.87905286  0.70551415  0.97278723    -0.11800
C341        C  0.86675384  0.66550525  0.96227992    -0.25700
C342        C  0.88349491  0.63816609  0.96922039     0.36800
C343        C  0.96558252  0.70992336  0.01009332     0.06300
F344        F  0.92243476  0.75932469  0.99797247    -0.19500
H345        H  0.86675471  0.72717860  0.96786583     0.16200
F346        F  0.87164643  0.59854014  0.96008331    -0.23200
H347        H  0.92732738  0.63102115  0.98985053     0.18000
C348        C  0.96249998  0.72440973  0.02961349     0.26000
C349        C  0.99873884  0.73988612  0.04319129    -0.11700
C350        C  0.03876871  0.74142422  0.03753203    -0.25800
C351        C  0.04152472  0.72678878  0.01798225     0.36900
C352        C  0.00542896  0.71121909  0.00457639    -0.27400
F353        F  0.92417524  0.72262368  0.03573236    -0.19500
H354        H  0.99552164  0.75075136  0.05808331     0.16200
F355        F  0.07915960  0.72734536  0.01167380    -0.23200
H356        H  0.00880671  0.70050712  0.98968223     0.18000
C357        C  0.63164510  0.43734203  0.90546310    -0.27300
C358        C  0.60010308  0.43355745  0.91985774     0.06300
C359        C  0.61071250  0.47037318  0.93244918     0.25900
C360        C  0.65133895  0.51068783  0.93013292    -0.11800
C361        C  0.68254405  0.51499550  0.91540027    -0.25700
C362        C  0.67245058  0.47761117  0.90319241     0.36800
C363        C  0.55580919  0.39165122  0.92134853     0.06300
F364        F  0.58194972  0.46711472  0.94718278    -0.19500
H365        H  0.65839159  0.53858036  0.93991021     0.16200
F366        F  0.70139671  0.48021081  0.88869304    -0.23200
H367        H  0.62419143  0.40937569  0.89566351     0.18000
C368        C  0.51590424  0.39241221  0.91836164     0.26000
C369        C  0.47422560  0.35287026  0.91979944    -0.11700
C370        C  0.47138019  0.31184894  0.92459916    -0.25800
C371        C  0.51144223  0.31118057  0.92757427     0.36900
C372        C  0.55315143  0.35061769  0.92571855    -0.27400
F373        F  0.51730207  0.43140889  0.91381583    -0.19500
H374        H  0.44409302  0.35450380  0.91746331     0.16200
F375        F  0.51042111  0.27244214  0.93225440    -0.23200
H376        H  0.58347072  0.34929646  0.92805194     0.18000
C377        C  0.95278122  0.66257513  0.84482819    -0.27300
C378        C  0.98203983  0.70897045  0.84282301     0.06300
C379        C  0.97612270  0.73841581  0.85533054     0.25900
C380        C  0.94068865  0.72196431  0.86894929    -0.11800
C381        C  0.91020942  0.67579086  0.87050100    -0.25700
C382        C  0.91701874  0.64596326  0.85856633     0.36800
C383        C  0.01775026  0.72738031  0.82729804     0.06300
F384        F  0.00464147  0.78334959  0.85433335    -0.19500
H385        H  0.93669486  0.74572629  0.87806262     0.16200
F386        F  0.88876900  0.60104411  0.85980995    -0.23200
H387        H  0.95684983  0.63933810  0.83534590     0.18000
C388        C  0.05010408  0.71420759  0.82615725     0.26000
C389        C  0.08641903  0.73608600  0.81289452    -0.11700
C390        C  0.09085984  0.77122011  0.80056445    -0.25800
C391        C  0.05719929  0.78277904  0.80107357     0.36900
C392        C  0.02109394  0.76093166  0.81425758    -0.27400
F393        F  0.04786164  0.68186449  0.83854306    -0.19500
H394        H  0.11170817  0.72638175  0.81268702     0.16200
F395        F  0.05962538  0.81607547  0.78928509    -0.23200
H396        H  0.99607416  0.77100404  0.81463695     0.18000
C397        C  0.33926433  0.09359804  0.85177855    -0.27300
C398        C  0.29416965  0.06552627  0.84640693     0.06300
C399        C  0.26103775  0.06963450  0.85687056     0.25900
C400        C  0.27286390  0.10081671  0.87259388    -0.11800
C401        C  0.31786831  0.12802663  0.87841140    -0.25700
C402        C  0.35112152  0.12460151  0.86757752     0.36800
C403        C  0.28166335  0.02984947  0.83097891     0.06300
F404        F  0.21704274  0.04160332  0.85269096    -0.19500
H405        H  0.24654062  0.10216380  0.88086311     0.16200
F406        F  0.39506270  0.15064390  0.87245185    -0.23200
H407        H  0.36527238  0.09091123  0.84392733     0.18000
C408        C  0.25739473  0.02772754  0.81353734     0.26000
C409        C  0.24438691  0.99260776  0.79961961    -0.11700
C410        C  0.25441830  0.95845306  0.80310059    -0.25800
C411        C  0.27890132  0.96086807  0.82055479     0.36900
C412        C  0.29277981  0.99648282  0.83414578    -0.27400
F413        F  0.24623426  0.05956807  0.81000645    -0.19500
H414        H  0.22539729  0.99146723  0.78639831     0.16200
F415        F  0.28918131  0.92859083  0.82463889    -0.23200
H416        H  0.31123668  0.99735404  0.84754210     0.18000
C417        C  0.66253421  0.74343084  0.81983457    -0.27300
C418        C  0.70660558  0.76729574  0.82732836     0.06300
C419        C  0.73588162  0.81001069  0.81913076     0.25900
C420        C  0.72164994  0.82726372  0.80336783    -0.11800
C421        C  0.67821318  0.80224029  0.79524796    -0.25700
C422        C  0.64846349  0.76045167  0.80404707     0.36800
C423        C  0.72204700  0.74542986  0.84237521     0.06300
F424        F  0.77910777  0.83391978  0.82537354    -0.19500
H425        H  0.74539855  0.85937730  0.79686274     0.16200
F426        F  0.60591186  0.73527522  0.79708279    -0.23200
H427        H  0.63902585  0.71083106  0.82595761     0.18000
C428        C  0.74681677  0.76773256  0.85980488     0.26000
C429        C  0.76073985  0.74588372  0.87346178    -0.11700
C430        C  0.75033905  0.70143397  0.87007340    -0.25800
C431        C  0.72509215  0.67909728  0.85279890     0.36900
C432        C  0.71129226  0.70083432  0.83923607    -0.27400
F433        F  0.75669226  0.81021420  0.86393572    -0.19500
H434        H  0.78000912  0.76390886  0.88662009     0.16200
F435        F  0.71341529  0.63595700  0.84895292    -0.23200
H436        H  0.69242573  0.68270425  0.82599296     0.18000
C437        C  0.47838727  0.86532323  0.76047392    -0.27300
C438        C  0.43935085  0.83018448  0.75174948     0.06300
C439        C  0.44224702  0.79597303  0.74154816     0.25900
C440        C  0.48337625  0.79719556  0.74015512    -0.11800
C441        C  0.52249667  0.83252575  0.74881735    -0.25700
C442        C  0.51945300  0.86664347  0.75904260     0.36800
C443        C  0.39659295  0.83090177  0.75284363     0.06300
F444        F  0.40579757  0.76229420  0.73224217    -0.19500
H445        H  0.48470755  0.77073479  0.73202320     0.16200
F446        F  0.55623400  0.90182394  0.76739934    -0.23200
H447        H  0.47709556  0.89202597  0.76840802     0.18000
C448        C  0.35649134  0.79368568  0.75969786     0.26000
C449        C  0.31747368  0.79636982  0.76166648    -0.11700
C450        C  0.31755144  0.83603703  0.75675658    -0.25800
C451        C  0.35749044  0.87293899  0.74962927     0.36900
C452        C  0.39641821  0.87030274  0.74775202    -0.27400
F453        F  0.35534619  0.75531137  0.76525304    -0.19500
H454        H  0.28734300  0.76756320  0.76723858     0.16200
F455        F  0.35941556  0.91209978  0.74491595    -0.23200
H456        H  0.42667518  0.89929042  0.74239275     0.18000
C457        C  0.71917344  0.65802391  0.66430462    -0.27300
C458        C  0.72298425  0.69996703  0.66116976     0.06300
C459        C  0.74720181  0.72586704  0.64451259     0.25900
C460        C  0.76933180  0.71112148  0.63177913    -0.11800
C461        C  0.76754506  0.67015159  0.63537445    -0.25700
C462        C  0.74100286  0.64292843  0.65140751     0.36800
C463        C  0.70653450  0.71931069  0.67645714     0.06300
F464        F  0.75071730  0.76622639  0.64100172    -0.19500
H465        H  0.78888699  0.73240341  0.61940266     0.16200
F466        F  0.73774233  0.60278157  0.65518789    -0.23200
H467        H  0.70069942  0.63781620  0.67713588     0.18000
C468        C  0.66189759  0.70955686  0.67665699     0.26000
C469        C  0.64833105  0.73129643  0.69043432    -0.11700
C470        C  0.67928553  0.76330432  0.70401879    -0.25800
C471        C  0.72375772  0.77204428  0.70397381     0.36900
C472        C  0.73706460  0.75022946  0.69031251    -0.27400
F473        F  0.63199823  0.68026401  0.66311030    -0.19500
H474        H  0.61399940  0.72406358  0.69008691     0.16200
F475        F  0.75476092  0.80223200  0.71690789    -0.23200
H476        H  0.77162122  0.75809516  0.69027078     0.18000
C477        C  0.09279145  0.75171448  0.68672313    -0.27300
C478        C  0.07124139  0.77467333  0.68011730     0.06300
C479        C  0.08355663  0.81655386  0.68875494     0.25900
C480        C  0.11585207  0.83424288  0.70414995    -0.11800
C481        C  0.13584204  0.81018579  0.71139358    -0.25700
C482        C  0.12465431  0.76909464  0.70218324     0.36800
C483        C  0.03332590  0.75250362  0.66563044     0.06300
F484        F  0.06220004  0.83885623  0.68331978    -0.19500
H485        H  0.12337108  0.86559640  0.71117369     0.16200
F486        F  0.14350501  0.74495397  0.70849919    -0.23200
H487        H  0.08393678  0.71949490  0.68023714     0.18000
C488        C  0.03220450  0.77312554  0.64748876     0.26000
C489        C  0.99612688  0.75065982  0.63401388    -0.11700
C490        C  0.96036762  0.70756775  0.63855226    -0.25800
C491        C  0.96159685  0.68731778  0.65683502     0.36900
C492        C  0.99774310  0.70947298  0.67006768    -0.27400
F493        F  0.06635859  0.81451171  0.64261610    -0.19500
H494        H  0.99600820  0.76705969  0.62012782     0.16200
F495        F  0.92795006  0.64586191  0.66200371    -0.23200
H496        H  0.99775955  0.69309080  0.68397398     0.18000
C497        C  0.70533903  0.98931956  0.67226502    -0.27300
C498        C  0.74647881  0.02743281  0.67711260     0.06300
C499        C  0.76644931  0.02868112  0.69583934     0.25900
C500        C  0.74606850  0.99203003  0.70913209    -0.11800
C501        C  0.70536798  0.95345058  0.70403456    -0.25700
C502        C  0.68504235  0.95277188  0.68545785     0.36800
C503        C  0.76852011  0.06476355  0.66221270     0.06300
F504        F  0.80536736  0.06559289  0.70140586    -0.19500
H505        H  0.76234290  0.99368361  0.72332389     0.16200
F506        F  0.64549941  0.91663430  0.67988150    -0.23200
H507        H  0.68928487  0.98739992  0.65798222     0.18000
C508        C  0.81323034  0.08130070  0.65622978     0.26000
C509        C  0.83229191  0.11336004  0.64087089    -0.11700
C510        C  0.80712604  0.12917160  0.63087491    -0.25800
C511        C  0.76283852  0.11384924  0.63732701     0.36900
C512        C  0.74386380  0.08193820  0.65278080    -0.27400
F513        F  0.83764876  0.06427689  0.66423922    -0.19500
H514        H  0.86619978  0.12412534  0.63610554     0.16200
F515        F  0.73727011  0.12849160  0.62830835    -0.23200
H516        H  0.70944736  0.06991355  0.65713962     0.18000
C517        C  0.04658753  0.28562977  0.53331303    -0.27300
C518        C  0.03884153  0.26935101  0.51337490     0.06300
C519        C  0.99504531  0.23788416  0.50746579     0.25900
C520        C  0.95954561  0.22343972  0.52107493    -0.11800
C521        C  0.96678746  0.23984025  0.54095742    -0.25700
C522        C  0.01081895  0.27090100  0.54708456     0.36800
C523        C  0.07523679  0.28685780  0.49809526     0.06300
F524        F  0.98650235  0.22173242  0.48830953    -0.19500
H525        H  0.92608046  0.19949024  0.51597173     0.16200
F526        F  0.01892855  0.28856120  0.56596676    -0.23200
H527        H  0.08008180  0.31040951  0.53803878     0.18000
C528        C  0.07957480  0.31968608  0.48434234     0.26000
C529        C  0.10903094  0.33162571  0.46797530    -0.11700
C530        C  0.13478334  0.31098722  0.46482367    -0.25800
C531        C  0.13153681  0.27910519  0.47905852     0.36900
C532        C  0.10190827  0.26716903  0.49551294    -0.27400
F533        F  0.05398993  0.33903928  0.48634891    -0.19500
H534        H  0.11064772  0.35625590  0.45738005     0.16200
F535        F  0.15577243  0.25840251  0.47677074    -0.23200
H536        H  0.09860954  0.24140693  0.50585741     0.18000
C537        C  0.88361431  0.47731313  0.58331016    -0.27300
C538        C  0.84695283  0.43719782  0.59034032     0.06300
C539        C  0.81092920  0.43862911  0.59943279     0.25900
C540        C  0.81127279  0.47924551  0.60100683    -0.11800
C541        C  0.84757656  0.51931491  0.59364400    -0.25700
C542        C  0.88402361  0.51796172  0.58489118     0.36800
C543        C  0.84690361  0.39428097  0.58822634     0.06300
F544        F  0.77591463  0.40096607  0.60728751    -0.19500
H545        H  0.78316126  0.47933403  0.60809349     0.16200
F546        F  0.92031865  0.55587702  0.57800913    -0.23200
H547        H  0.91180379  0.47706627  0.57640381     0.18000
C548        C  0.81133645  0.35690059  0.57863145     0.26000
C549        C  0.81241810  0.31710638  0.57627539    -0.11700
C550        C  0.84892825  0.31375902  0.58344224    -0.25800
C551        C  0.88449416  0.35127668  0.59304699     0.36900
C552        C  0.88342252  0.39101378  0.59532532    -0.27400
F553        F  0.77618411  0.35930752  0.57096625    -0.19500
H554        H  0.78477101  0.28899114  0.56874351     0.16200
F555        F  0.92063064  0.34988128  0.60012397    -0.23200
H556        H  0.91115884  0.41932858  0.60272373     0.18000
C557        C  0.69149801  0.88111426  0.34986665    -0.27300
C558        C  0.69613751  0.92372123  0.35267073     0.06300
C559        C  0.68929139  0.93546743  0.37218001     0.25900
C560        C  0.67801348  0.90544620  0.38825865    -0.11800
C561        C  0.67411733  0.86331357  0.38552532    -0.25700
C562        C  0.68100266  0.85132970  0.36614282     0.36800
C563        C  0.70890820  0.95621407  0.33553116     0.06300
F564        F  0.69503050  0.97665935  0.37596334    -0.19500
H565        H  0.67338164  0.91571025  0.40308179     0.16200
F566        F  0.67652549  0.81051050  0.36282512    -0.23200
H567        H  0.69569569  0.87069506  0.33502585     0.18000
C568        C  0.74398207  0.96419939  0.32219843     0.26000
C569        C  0.75799683  0.99745681  0.30728452    -0.11700
C570        C  0.73798538  0.02399780  0.30554287    -0.25800
C571        C  0.70207328  0.01519499  0.31841700     0.36900
C572        C  0.68741088  0.98133073  0.33300831    -0.27400
F573        F  0.76649144  0.94166205  0.32424289    -0.19500
H574        H  0.78592421  0.00386507  0.29772231     0.16200
F575        F  0.68123201  0.03951770  0.31702212    -0.23200
H576        H  0.65958001  0.97524649  0.34258516     0.18000
C577        C  0.67719407  0.94079682  0.49891523    -0.27300
C578        C  0.72330274  0.96719773  0.50271613     0.06300
C579        C  0.75299747  0.95660311  0.49315925     0.25900
C580        C  0.73674691  0.91969599  0.48025382    -0.11800
C581        C  0.69052242  0.89249388  0.47668671    -0.25700
C582        C  0.66078697  0.90357426  0.48604494     0.36800
C583        C  0.74064152  0.00526963  0.51696331     0.06300
F584        F  0.79784625  0.98235595  0.49615593    -0.19500
H585        H  0.76043479  0.91235066  0.47310468     0.16200
F586        F  0.61598491  0.87857166  0.48280149    -0.23200
H587        H  0.65396285  0.94866586  0.50614427     0.18000
C588        C  0.73817011  0.04366392  0.51246280     0.26000
C589        C  0.75781254  0.08077385  0.52540685    -0.11700
C590        C  0.78037928  0.08022339  0.54297162    -0.25800
C591        C  0.78165358  0.04108766  0.54770602     0.36900
C592        C  0.76199987  0.00408776  0.53475763    -0.27400
F593        F  0.71862390  0.04602531  0.49509415    -0.19500
H594        H  0.75663074  0.11050285  0.52133599     0.16200
F595        F  0.80233188  0.03861938  0.56468104    -0.23200
H596        H  0.76397685  0.97461643  0.53845354     0.18000
C597        C  0.71555862  0.67197829  0.48601870    -0.27300
C598        C  0.75577393  0.70311232  0.49555780     0.06300
C599        C  0.77704800  0.74826226  0.48942802     0.25900
C600        C  0.75751377  0.76206653  0.47464275    -0.11800
C601        C  0.71612581  0.73133483  0.46600578    -0.25700
C602        C  0.69567168  0.68596785  0.47151309     0.36800
C603        C  0.77343327  0.68897549  0.51284610     0.06300
F604        F  0.81496910  0.77960743  0.49877163    -0.19500
H605        H  0.77319680  0.79728349  0.47094112     0.16200
F606        F  0.65594532  0.65537996  0.46318318    -0.23200
H607        H  0.69885612  0.63699046  0.49026203     0.18000
C608        C  0.74540076  0.66551998  0.52919763     0.26000
C609        C  0.76224578  0.65375691  0.54580997    -0.11700
C610        C  0.80746665  0.66537056  0.54668640    -0.25800
C611        C  0.83554973  0.68839355  0.53027819     0.36900
C612        C  0.81857564  0.70000713  0.51350921    -0.27400
F613        F  0.70204998  0.65552252  0.52952513    -0.19500
H614        H  0.74002665  0.63657999  0.55832757     0.16200
F615        F  0.87910202  0.69913062  0.53030734    -0.23200
H616        H  0.84067311  0.71763486  0.50102270     0.18000
C617        C  0.36376607  0.54335991  0.41029050    -0.27300
C618        C  0.39560309  0.54930144  0.42496830     0.06300
C619        C  0.38701346  0.51317459  0.43760938     0.25900
C620        C  0.34789057  0.47145868  0.43513579    -0.11800
C621        C  0.31619850  0.46508239  0.42021203    -0.25700
C622        C  0.32424546  0.50189936  0.40802253     0.36800
C623        C  0.43836007  0.59267201  0.42657727     0.06300
F624        F  0.41723553  0.51785075  0.45190217    -0.19500
H625        H  0.34265429  0.44394879  0.44477973     0.16200
F626        F  0.29436164  0.49781980  0.39367935    -0.23200
H627        H  0.36965410  0.57092863  0.40052005     0.18000
C628        C  0.46932222  0.60798029  0.41060980     0.26000
C629        C  0.51040192  0.64798795  0.41246795    -0.11700
C630        C  0.52130539  0.67381370  0.43019922    -0.25800
C631        C  0.48986481  0.65874809  0.44607964     0.36900
C632        C  0.44896630  0.61842501  0.44427307    -0.27400
F633        F  0.46041240  0.58342222  0.39345480    -0.19500
H634        H  0.53393312  0.65853671  0.40005553     0.16200
F635        F  0.49892352  0.68234765  0.46353824    -0.23200
H636        H  0.42551177  0.60716305  0.45673217     0.18000
loop_ 
_geom_bond_atom_site_label_1 
_geom_bond_atom_site_label_2 
_geom_bond_distance 
_geom_bond_site_symmetry_2 
_ccdc_geom_bond_type 
In1           O3   2.241       .  S
In1           O4   2.274       .  S
In1          O12   2.252       .  S
In1           O6   2.251       .  S
In1           O8   2.258       .  S
In1           O9   2.278       .  S
In1          O10   2.231       .  S
In1          O13   2.233       .  S
C2            O8   1.265       .  A
C2           O10   1.260       .  A
C2          C581   1.481       .  S
O3           C11   1.258       .  A
O4           C11   1.264       .  A
C5           O12   1.264       .  A
C5            O6   1.264       .  A
C5          C630   1.488       .  S
C7            O9   1.267       .  A
C7           O13   1.260       .  A
C7          C561   1.485       .  S
C11         C601   1.477       .  S
In14         O16   2.227       .  S
In14         O17   2.285       .  S
In14         O25   2.240       .  S
In14         O19   2.263       .  S
In14         O21   2.252       .  S
In14         O22   2.257       .  S
In14         O23   2.234       .  S
In14         O26   2.239       .  S
C15          O21   1.268       .  A
C15          O23   1.262       .  A
C15         C590   1.482       .  S
O16          C24   1.260       .  A
O17          C24   1.267       .  A
C18          O25   1.261       .  A
C18          O19   1.265       .  A
C18         C550   1.488       .  S
C20          O22   1.267       .  A
C20          O26   1.261       .  A
C20         C510   1.487       .  S
C24         C521   1.486       .  S
In27         O29   2.227       .  S
In27         O30   2.281       .  S
In27         O38   2.255       .  S
In27         O32   2.249       .  S
In27         O34   2.258       .  S
In27         O35   2.275       .  S
In27         O36   2.231       .  S
In27         O39   2.229       .  S
C28          O34   1.264       .  A
C28          O36   1.261       .  A
C28         C461   1.481       .  S
O29          C37   1.259       .  A
O30          C37   1.266       .  A
C31          O38   1.263       .  A
C31          O32   1.263       .  A
C31         C541   1.487       .  S
C33          O35   1.267       .  A
C33          O39   1.261       .  A
C33         C610   1.484       .  S
C37         C490   1.487       .  S
In40         O42   2.235       .  S
In40         O43   2.286       .  S
In40         O51   2.258       .  S
In40         O45   2.256       .  S
In40         O47   2.269       .  S
In40         O48   2.283       .  S
In40         O49   2.232       .  S
In40         O52   2.250       .  S
C41          O47   1.264       .  A
C41          O49   1.260       .  A
C41         C470   1.484       .  S
O42          C50   1.259       .  A
O43          C50   1.267       .  A
C44          O51   1.264       .  A
C44          O45   1.263       .  A
C44         C441   1.490       .  S
C46          O48   1.265       .  A
C46          O52   1.261       .  A
C46         C421   1.495       .  S
C50         C501   1.491       .  S
In53         O55   2.273       .  S
In53         O56   2.235       .  S
In53         O64   2.246       .  S
In53         O58   2.253       .  S
In53         O60   2.256       .  S
In53         O61   2.268       .  S
In53         O62   2.224       .  S
In53         O65   2.233       .  S
C54          O60   1.264       .  A
C54          O62   1.259       .  A
C54         C390   1.479       .  S
O55          C63   1.266       .  A
O56          C63   1.260       .  A
C57          O64   1.264       .  A
C57          O58   1.263       .  A
C57         C450   1.487       .  S
C59          O61   1.265       .  A
C59          O65   1.260       .  A
C59         C481   1.484       .  S
C63         C410   1.487       .  S
In66         O68   2.286       .  S
In66         O69   2.240       .  S
In66         O77   2.253       .  S
In66         O71   2.253       .  S
In66         O73   2.270       .  S
In66         O74   2.281       .  S
In66         O75   2.219       .  S
In66         O78   2.248       .  S
C67          O73   1.264       .  A
C67          O75   1.260       .  A
C67         C381   1.481       .  S
O68          C76   1.267       .  A
O69          C76   1.260       .  A
C70          O77   1.264       .  A
C70          O71   1.264       .  A
C70         C361   1.488       .  S
C72          O74   1.266       .  A
C72          O78   1.261       .  A
C72         C341   1.494       .  S
C76         C430   1.494       .  S
In79         O81   2.241       .  S
In79         O82   2.294       .  S
In79         O90   2.272       .  S
In79         O84   2.274       .  S
In79         O86   2.277       .  S
In79         O87   2.288       .  S
In79         O88   2.238       .  S
In79         O91   2.241       .  S
C80          O86   1.264       .  A
C80          O88   1.258       .  A
C80         C310   1.487       .  S
O81          C89   1.262       .  A
O82          C89   1.266       .  A
C83          O90   1.264       .  A
C83          O84   1.263       .  A
C83         C290   1.493       .  S
C85          O87   1.266       .  A
C85          O91   1.259       .  A
C85         C270   1.491       .  S
C89         C321   1.494       .  S
In92         O94   2.237       .  S
In92         O95   2.281       .  S
In92        O103   2.258       .  S
In92         O97   2.259       .  S
In92         O99   2.279       .  S
In92        O100   2.287       .  S
In92        O101   2.236       .  S
In92        O104   2.242       .  S
C93          O99   1.266       .  A
C93         O101   1.261       .  A
C93         C301   1.488       .  S
O94         C102   1.260       .  A
O95         C102   1.266       .  A
C96         O103   1.262       .  A
C96          O97   1.264       .  A
C96         C221   1.489       .  S
C98         O100   1.265       .  A
C98         O104   1.260       .  A
C98         C210   1.490       .  S
C102        C241   1.489       .  S
In105       O107   2.245       .  S
In105       O108   2.273       .  S
In105       O116   2.258       .  S
In105       O110   2.258       .  S
In105       O112   2.276       .  S
In105       O113   2.288       .  S
In105       O114   2.230       .  S
In105       O117   2.233       .  S
C106        O112   1.267       .  A
C106        O114   1.260       .  A
C106        C190   1.488       .  S
O107        C115   1.259       .  A
O108        C115   1.265       .  A
C109        O116   1.264       .  A
C109        O110   1.264       .  A
C109        C230   1.490       .  S
C111        O113   1.266       .  A
C111        O117   1.261       .  A
C111        C330   1.486       .  S
C115        C570   1.485       .  S
In118       O120   2.247       .  S
In118       O121   2.298       .  S
In118       O129   2.261       .  S
In118       O123   2.256       .  S
In118       O125   2.272       .  S
In118       O126   2.288       .  S
In118       O127   2.235       .  S
In118       O130   2.241       .  S
C119        O125   1.264       .  A
C119        O127   1.260       .  A
C119        C181   1.486       .  S
O120        C128   1.259       .  A
O121        C128   1.265       .  A
C122        O129   1.265       .  A
C122        O123   1.263       .  A
C122        C621   1.491       .  S
C124        O126   1.267       .  A
C124        O130   1.260       .  A
C124        C530   1.494       .  S
C128        C201   1.493       .  S
In131       O133   2.233       .  S
In131       O134   2.287       .  S
In131       O142   2.255       .  S
In131       O136   2.279       .  S
In131       O138   2.274       .  S
In131       O139   2.271       .  S
In131       O140   2.244       .  S
In131       O143   2.244       .  S
C132        O138   1.265       .  A
C132        O140   1.258       .  A
C132        C161   1.485       .  S
O133        C141   1.260       .  A
O134        C141   1.268       .  A
C135        O142   1.263       .  A
C135        O136   1.266       .  A
C135        C281   1.493       .  S
C137        O139   1.267       .  A
C137        O143   1.262       .  A
C137        C250   1.490       .  S
C141        C350   1.494       .  S
In144       O146   2.225       .  S
In144       O147   2.287       .  S
In144       O155   2.261       .  S
In144       O149   2.255       .  S
In144       O151   2.270       .  S
In144       O152   2.268       .  S
In144       O153   2.247       .  S
In144       O156   2.250       .  S
C145        O151   1.263       .  A
C145        O153   1.259       .  A
C145        C170   1.487       .  S
O146        C154   1.259       .  A
O147        C154   1.266       .  A
C148        O155   1.264       .  A
C148        O149   1.264       .  A
C148        C370   1.490       .  S
C150        O152   1.265       .  A
C150        O156   1.261       .  A
C150        C401   1.488       .  S
C154        C261   1.489       .  S
C157        C158   1.404       .  A
C157        C162   1.402       .  A
C157        H167   1.084   1_565  S
C158        C163   1.487   1_564  S
C158        C159   1.407       .  A
C159        C160   1.402       .  A
C159        F164   1.357   1_554  S
C160        C161   1.405       .  A
C160        H165   1.083       .  S
C161        C162   1.410       .  A
C162        F166   1.358       .  S
C163        C168   1.406       .  A
C163        C172   1.405   1_556  A
C168        C169   1.401       .  A
C168        F173   1.358   1_545  S
C169        C170   1.407       .  A
C169        H174   1.082       .  S
C170        C171   1.409       .  A
C171        C172   1.403   1_556  A
C171        F175   1.357       .  S
C172        H176   1.082       .  S
C177        C178   1.406       .  A
C177        C182   1.406       .  A
C177        H187   1.083       .  S
C178        C183   1.487   1_455  S
C178        C179   1.405       .  A
C179        C180   1.396       .  A
C179        F184   1.358   1_455  S
C180        C181   1.405       .  A
C180        H185   1.083       .  S
C181        C182   1.410       .  A
C182        F186   1.357       .  S
C183        C188   1.407       .  A
C183        C192   1.403       .  A
C188        C189   1.406       .  A
C188        F193   1.357       .  S
C189        C190   1.408       .  A
C189        H194   1.082       .  S
C190        C191   1.410       .  A
C191        C192   1.397       .  A
C191        F195   1.358       .  S
C192        H196   1.083       .  S
C197        C198   1.407       .  A
C197        C202   1.400       .  A
C197        H207   1.081       .  S
C198        C203   1.502       .  S
C198        C199   1.412       .  A
C199        C200   1.411       .  A
C199        F204   1.357       .  S
C200        C201   1.408       .  A
C200        H205   1.080       .  S
C201        C202   1.407       .  A
C202        F206   1.357       .  S
C203        C208   1.410       .  A
C203        C212   1.411       .  A
C208        C209   1.398       .  A
C208        F213   1.357       .  S
C209        C210   1.403       .  A
C209        H214   1.082       .  S
C210        C211   1.409       .  A
C211        C212   1.411       .  A
C211        F215   1.357       .  S
C212        H216   1.081       .  S
C217        C218   1.404       .  A
C217        C222   1.402       .  A
C217        H227   1.083       .  S
C218        C223   1.490       .  S
C218        C219   1.407       .  A
C219        C220   1.404       .  A
C219        F224   1.358       .  S
C220        C221   1.408       .  A
C220        H225   1.082       .  S
C221        C222   1.409       .  A
C222        F226   1.357       .  S
C223        C228   1.407       .  A
C223        C232   1.404       .  A
C228        C229   1.404       .  A
C228        F233   1.358       .  S
C229        C230   1.407       .  A
C229        H234   1.082       .  S
C230        C231   1.410       .  A
C231        C232   1.403       .  A
C231        F235   1.357       .  S
C232        H236   1.082       .  S
C237        C238   1.406       .  A
C237        C242   1.399   1_565  A
C237        H247   1.081       .  S
C238        C243   1.499       .  S
C238        C239   1.411       .  A
C239        C240   1.407       .  A
C239        F244   1.357       .  S
C240        C241   1.407   1_565  A
C240        H245   1.082   1_565  S
C241        C242   1.409       .  A
C242        F246   1.358       .  S
C243        C248   1.411       .  A
C243        C252   1.407       .  A
C248        C249   1.406       .  A
C248        F253   1.357       .  S
C249        C250   1.406       .  A
C249        H254   1.083       .  S
C250        C251   1.408       .  A
C251        C252   1.401       .  A
C251        F255   1.357       .  S
C252        H256   1.083       .  S
C257        C258   1.403       .  A
C257        C262   1.396       .  A
C257        H267   1.081   1_556  S
C258        C263   1.492   1_556  S
C258        C259   1.410       .  A
C259        C260   1.409       .  A
C259        F264   1.357       .  S
C260        C261   1.408       .  A
C260        H265   1.082       .  S
C261        C262   1.409       .  A
C262        F266   1.358       .  S
C263        C268   1.409       .  A
C263        C272   1.404       .  A
C268        C269   1.408       .  A
C268        F273   1.357       .  S
C269        C270   1.408       .  A
C269        H274   1.083       .  S
C270        C271   1.409       .  A
C271        C272   1.400       .  A
C271        F275   1.357       .  S
C272        H276   1.083       .  S
C277        C278   1.411       .  A
C277        C282   1.403       .  A
C277        H287   1.081       .  S
C278        C283   1.513       .  S
C278        C279   1.416       .  A
C279        C280   1.410       .  A
C279        F284   1.357       .  S
C280        C281   1.406       .  A
C280        H285   1.083       .  S
C281        C282   1.406       .  A
C282        F286   1.357       .  S
C283        C288   1.415       .  A
C283        C292   1.412       .  A
C288        C289   1.405       .  A
C288        F293   1.357       .  S
C289        C290   1.404       .  A
C289        H294   1.083       .  S
C290        C291   1.407       .  A
C291        C292   1.408       .  A
C291        F295   1.357       .  S
C292        H296   1.081       .  S
C297        C298   1.409       .  A
C297        C302   1.408       .  A
C297        H307   1.082       .  S
C298        C303   1.497       .  S
C298        C299   1.410       .  A
C299        C300   1.397       .  A
C299        F304   1.358       .  S
C300        C301   1.404       .  A
C300        H305   1.082       .  S
C301        C302   1.409       .  A
C302        F306   1.357       .  S
C303        C308   1.411       .  A
C303        C312   1.406       .  A
C308        C309   1.405       .  A
C308        F313   1.357       .  S
C309        C310   1.406       .  A
C309        H314   1.083       .  S
C310        C311   1.409       .  A
C311        C312   1.398       .  A
C311        F315   1.358       .  S
C312        H316   1.083       .  S
C317        C318   1.412       .  A
C317        C322   1.414   1_655  A
C317        H327   1.083       .  S
C318        C323   1.505       .  S
C318        C319   1.411       .  A
C319        C320   1.396   1_655  A
C319        F324   1.357       .  S
C320        C321   1.402       .  A
C320        H325   1.083       .  S
C321        C322   1.412       .  A
C322        F326   1.357       .  S
C323        C328   1.415       .  A
C323        C332   1.407       .  A
C328        C329   1.414       .  A
C328        F333   1.357       .  S
C329        C330   1.407       .  A
C329        H334   1.083       .  S
C330        C331   1.403       .  A
C331        C332   1.395       .  A
C331        F335   1.358       .  S
C332        H336   1.083       .  S
C337        C338   1.405       .  A
C337        C342   1.401       .  A
C337        H347   1.082       .  S
C338        C343   1.496   1_556  S
C338        C339   1.409       .  A
C339        C340   1.408       .  A
C339        F344   1.357       .  S
C340        C341   1.408       .  A
C340        H345   1.081       .  S
C341        C342   1.411       .  A
C342        F346   1.358       .  S
C343        C348   1.410       .  A
C343        C352   1.404   1_655  A
C348        C349   1.410       .  A
C348        F353   1.357       .  S
C349        C350   1.409   1_655  A
C349        H354   1.081       .  S
C350        C351   1.411       .  A
C351        C352   1.399       .  A
C351        F355   1.358       .  S
C352        H356   1.081   1_554  S
C357        C358   1.405       .  A
C357        C362   1.404       .  A
C357        H367   1.082       .  S
C358        C363   1.489       .  S
C358        C359   1.406       .  A
C359        C360   1.402       .  A
C359        F364   1.357       .  S
C360        C361   1.406       .  A
C360        H365   1.082       .  S
C361        C362   1.410       .  A
C362        F366   1.357       .  S
C363        C368   1.407       .  A
C363        C372   1.404       .  A
C368        C369   1.403       .  A
C368        F373   1.358       .  S
C369        C370   1.407       .  A
C369        H374   1.082       .  S
C370        C371   1.410       .  A
C371        C372   1.404       .  A
C371        F375   1.357       .  S
C372        H376   1.083       .  S
C377        C378   1.406       .  A
C377        C382   1.404       .  A
C377        H387   1.083       .  S
C378        C383   1.482   1_655  S
C378        C379   1.405       .  A
C379        C380   1.392       .  A
C379        F384   1.358   1_655  S
C380        C381   1.404       .  A
C380        H385   1.082       .  S
C381        C382   1.410       .  A
C382        F386   1.357       .  S
C383        C388   1.406       .  A
C383        C392   1.403       .  A
C388        C389   1.402       .  A
C388        F393   1.357       .  S
C389        C390   1.406       .  A
C389        H394   1.083       .  S
C390        C391   1.408       .  A
C391        C392   1.394       .  A
C391        F395   1.358       .  S
C392        H396   1.083   1_455  S
C397        C398   1.404       .  A
C397        C402   1.403       .  A
C397        H407   1.083       .  S
C398        C403   1.488       .  S
C398        C399   1.406       .  A
C399        C400   1.403       .  A
C399        F404   1.357       .  S
C400        C401   1.406       .  A
C400        H405   1.083       .  S
C401        C402   1.410       .  A
C402        F406   1.357       .  S
C403        C408   1.407       .  A
C403        C412   1.403   1_545  A
C408        C409   1.405   1_545  A
C408        F413   1.357       .  S
C409        C410   1.407       .  A
C409        H414   1.083       .  S
C410        C411   1.410       .  A
C411        C412   1.400       .  A
C411        F415   1.357       .  S
C412        H416   1.084       .  S
C417        C418   1.407       .  A
C417        C422   1.402       .  A
C417        H427   1.082       .  S
C418        C423   1.502       .  S
C418        C419   1.412       .  A
C419        C420   1.408       .  A
C419        F424   1.357       .  S
C420        C421   1.408       .  A
C420        H425   1.083       .  S
C421        C422   1.409       .  A
C422        F426   1.357       .  S
C423        C428   1.412       .  A
C423        C432   1.406       .  A
C428        C429   1.409       .  A
C428        F433   1.357       .  S
C429        C430   1.408       .  A
C429        H434   1.083       .  S
C430        C431   1.409       .  A
C431        C432   1.400       .  A
C431        F435   1.358       .  S
C432        H436   1.084       .  S
C437        C438   1.406       .  A
C437        C442   1.400       .  A
C437        H447   1.082       .  S
C438        C443   1.492       .  S
C438        C439   1.408       .  A
C439        C440   1.404       .  A
C439        F444   1.357       .  S
C440        C441   1.408       .  A
C440        H445   1.082       .  S
C441        C442   1.409       .  A
C442        F446   1.357       .  S
C443        C448   1.409       .  A
C443        C452   1.406       .  A
C448        C449   1.404       .  A
C448        F453   1.357       .  S
C449        C450   1.407       .  A
C449        H454   1.080       .  S
C450        C451   1.408       .  A
C451        C452   1.399       .  A
C451        F455   1.357       .  S
C452        H456   1.081       .  S
C457        C458   1.403       .  A
C457        C462   1.403       .  A
C457        H467   1.081       .  S
C458        C463   1.476       .  S
C458        C459   1.402       .  A
C459        C460   1.396       .  A
C459        F464   1.358       .  S
C460        C461   1.406       .  A
C460        H465   1.082       .  S
C461        C462   1.409       .  A
C462        F466   1.357       .  S
C463        C468   1.404       .  A
C463        C472   1.400       .  A
C468        C469   1.404       .  A
C468        F473   1.357       .  S
C469        C470   1.408       .  A
C469        H474   1.083       .  S
C470        C471   1.409       .  A
C471        C472   1.396       .  A
C471        F475   1.357       .  S
C472        H476   1.083       .  S
C477        C478   1.404       .  A
C477        C482   1.398       .  A
C477        H487   1.083       .  S
C478        C483   1.487       .  S
C478        C479   1.408       .  A
C479        C480   1.404       .  A
C479        F484   1.357       .  S
C480        C481   1.406       .  A
C480        H485   1.083       .  S
C481        C482   1.408       .  A
C482        F486   1.358       .  S
C483        C488   1.408       .  A
C483        C492   1.403   1_455  A
C488        C489   1.406   1_455  A
C488        F493   1.357       .  S
C489        C490   1.407       .  A
C489        H494   1.082       .  S
C490        C491   1.410       .  A
C491        C492   1.396       .  A
C491        F495   1.358       .  S
C492        H496   1.082       .  S
C497        C498   1.404   1_565  A
C497        C502   1.400       .  A
C497        H507   1.082       .  S
C498        C503   1.493       .  S
C498        C499   1.409       .  A
C499        C500   1.406   1_545  A
C499        F504   1.357       .  S
C500        C501   1.407       .  A
C500        H505   1.082       .  S
C501        C502   1.411       .  A
C502        F506   1.357       .  S
C503        C508   1.408       .  A
C503        C512   1.407       .  A
C508        C509   1.401       .  A
C508        F513   1.356       .  S
C509        C510   1.404       .  A
C509        H514   1.083       .  S
C510        C511   1.411       .  A
C511        C512   1.402       .  A
C511        F515   1.358       .  S
C512        H516   1.083       .  S
C517        C518   1.407       .  A
C517        C522   1.410       .  A
C517        H527   1.083       .  S
C518        C523   1.486       .  S
C518        C519   1.403   1_455  A
C519        C520   1.397       .  A
C519        F524   1.357       .  S
C520        C521   1.405       .  A
C520        H525   1.082       .  S
C521        C522   1.409   1_655  A
C522        F526   1.357       .  S
C523        C528   1.403       .  A
C523        C532   1.405       .  A
C528        C529   1.400       .  A
C528        F533   1.358       .  S
C529        C530   1.409       .  A
C529        H534   1.083       .  S
C530        C531   1.411       .  A
C531        C532   1.408       .  A
C531        F535   1.357       .  S
C532        H536   1.083       .  S
C537        C538   1.405       .  A
C537        C542   1.401       .  A
C537        H547   1.081       .  S
C538        C543   1.489       .  S
C538        C539   1.407       .  A
C539        C540   1.401       .  A
C539        F544   1.357       .  S
C540        C541   1.407       .  A
C540        H545   1.081       .  S
C541        C542   1.409       .  A
C542        F546   1.357       .  S
C543        C548   1.408       .  A
C543        C552   1.404       .  A
C548        C549   1.403       .  A
C548        F553   1.357       .  S
C549        C550   1.406       .  A
C549        H554   1.081       .  S
C550        C551   1.410       .  A
C551        C552   1.400       .  A
C551        F555   1.357       .  S
C552        H556   1.082       .  S
C557        C558   1.410       .  A
C557        C562   1.406       .  A
C557        H567   1.082       .  S
C558        C563   1.499       .  S
C558        C559   1.410       .  A
C559        C560   1.399       .  A
C559        F564   1.358       .  S
C560        C561   1.404       .  A
C560        H565   1.083       .  S
C561        C562   1.406       .  A
C562        F566   1.357       .  S
C563        C568   1.411       .  A
C563        C572   1.408       .  A
C568        C569   1.404       .  A
C568        F573   1.357       .  S
C569        C570   1.404   1_565  A
C569        H574   1.081   1_565  S
C570        C571   1.408       .  A
C571        C572   1.401   1_545  A
C571        F575   1.358       .  S
C572        H576   1.081       .  S
C577        C578   1.403       .  A
C577        C582   1.402       .  A
C577        H587   1.081       .  S
C578        C583   1.478   1_565  S
C578        C579   1.403       .  A
C579        C580   1.396       .  A
C579        F584   1.358       .  S
C580        C581   1.406       .  A
C580        H585   1.081       .  S
C581        C582   1.409       .  A
C582        F586   1.357       .  S
C583        C588   1.404       .  A
C583        C592   1.402       .  A
C588        C589   1.401       .  A
C588        F593   1.357       .  S
C589        C590   1.406       .  A
C589        H594   1.083       .  S
C590        C591   1.410       .  A
C591        C592   1.398       .  A
C591        F595   1.358       .  S
C592        H596   1.082   1_545  S
C597        C598   1.407       .  A
C597        C602   1.401       .  A
C597        H607   1.082       .  S
C598        C603   1.491       .  S
C598        C599   1.408       .  A
C599        C600   1.402       .  A
C599        F604   1.357       .  S
C600        C601   1.403       .  A
C600        H605   1.082       .  S
C601        C602   1.405       .  A
C602        F606   1.358       .  S
C603        C608   1.407       .  A
C603        C612   1.408       .  A
C608        C609   1.398       .  A
C608        F613   1.358       .  S
C609        C610   1.406       .  A
C609        H614   1.082       .  S
C610        C611   1.407       .  A
C611        C612   1.406       .  A
C611        F615   1.357       .  S
C612        H616   1.082       .  S
C617        C618   1.403       .  A
C617        C622   1.403       .  A
C617        H627   1.083       .  S
C618        C623   1.486       .  S
C618        C619   1.405       .  A
C619        C620   1.403       .  A
C619        F624   1.357       .  S
C620        C621   1.408       .  A
C620        H625   1.082       .  S
C621        C622   1.411       .  A
C622        F626   1.357       .  S
C623        C628   1.405       .  A
C623        C632   1.404       .  A
C628        C629   1.401       .  A
C628        F633   1.357       .  S
C629        C630   1.406       .  A
C629        H634   1.083       .  S
C630        C631   1.411       .  A
C631        C632   1.403       .  A
C631        F635   1.357       .  S
C632        H636   1.083       .  S
