geometry optimzed in LAMMPS
_audit_creation_date              2020-12-01 
_audit_creation_method            'lammps2cif' 
_symmetry_space_group_name_H-M    'P1' 
_symmetry_Int_Tables_number       1 
_symmetry_cell_setting            triclinic 
loop_ 
_symmetry_equiv_pos_as_xyz 
  x,y,z 
_cell_length_a                    44.98056275 
_cell_length_b                    44.82498546041621 
_cell_length_c                    35.28979372527486 
_cell_angle_alpha                 90.64880706456245 
_cell_angle_beta                  90.08417079867368 
_cell_angle_gamma                 90.05556702673202 
loop_ 
_atom_site_label 
_atom_site_type_symbol 
_atom_site_fract_x 
_atom_site_fract_y 
_atom_site_fract_z 
_atom_site_charge 
O1          O  0.19396101  0.02795025  0.07950863    -0.57700
C2          C  0.12318640  0.04299476  0.15169782     0.74900
O3          O  0.14498652  0.44860483  0.11826937    -0.58900
C4          C  0.21272876  0.50750924  0.07277870     0.74900
C5          C  0.19939125  0.99189796  0.19769156     0.77300
Cd6        Cd  0.16647474  0.99920623  0.12814987     1.37500
O7          O  0.14494118  0.05001256  0.13082172    -0.57700
O8          O  0.19804665  0.01630377  0.18020577    -0.56500
C9          C  0.12983145  0.45549869  0.08935306     0.77200
O10         O  0.18545897  0.47005656  0.18303948    -0.58900
O11         O  0.12179809  0.01600616  0.16169788    -0.57400
O12         O  0.20974572  0.48398416  0.09174894    -0.57300
O13         O  0.13171735  0.48231050  0.07880110    -0.56500
O14         O  0.30538290  0.47376391  0.32324922    -0.57700
C15         C  0.37019514  0.45472639  0.40532904     0.74900
O16         O  0.35732447  0.04715702  0.37823860    -0.58900
C17         C  0.28292151  0.99079202  0.32196785     0.74900
C18         C  0.29288074  0.50873876  0.44508128     0.77300
Cd19       Cd  0.32895402  0.49959889  0.37856180     1.37500
O20         O  0.34754383  0.44730902  0.38595658    -0.57700
O21         O  0.29991655  0.48325007  0.43233454    -0.56500
C22         C  0.36770923  0.04395906  0.34506367     0.77200
O23         O  0.30314549  0.03097831  0.42744566    -0.58900
O24         O  0.37341141  0.48231779  0.41195014    -0.57400
O25         O  0.28220134  0.01142281  0.34668263    -0.57300
O26         O  0.36012301  0.02040917  0.32744914    -0.56500
O27         O  0.46923441  0.30855810  0.05285223    -0.57700
C28         C  0.45362913  0.37031497  0.46911289     0.74900
O29         O  0.05001232  0.35128135  0.00411048    -0.58900
C30         C  0.48964144  0.29069026  0.06224829     0.74900
C31         C  0.50714124  0.29265885  0.43551822     0.77300
Cd32       Cd  0.49867624  0.33163530  0.49999191     1.37500
O33         O  0.44810914  0.35420927  0.49758396    -0.57700
O34         O  0.48176582  0.29893563  0.44863686    -0.56500
C35         C  0.04387097  0.37343298  0.02514670     0.77200
O36         O  0.02924009  0.30444013  0.45210071    -0.58900
O37         O  0.47972738  0.36868385  0.45582888    -0.57400
O38         O  0.01322301  0.29225452  0.04302300    -0.57300
O39         O  0.01695986  0.37614596  0.03497900    -0.56500
O40         O  0.46620726  0.19405564  0.20011271    -0.57700
C41         C  0.45288143  0.12743348  0.28189953     0.74900
O42         O  0.04747057  0.14780069  0.23886158    -0.58900
C43         C  0.48870314  0.20640742  0.18534864     0.74900
C44         C  0.50571645  0.21113732  0.30828520     0.77300
Cd45       Cd  0.49636024  0.16745433  0.24892424     1.37500
O46         O  0.44752590  0.14158513  0.25172824    -0.57700
O47         O  0.48287638  0.21039837  0.28742506    -0.56500
C48         C  0.03971669  0.12814546  0.21468362     0.77200
O49         O  0.02463546  0.19059837  0.30261937    -0.58900
O50         O  0.47841961  0.13140126  0.29622060    -0.57400
O51         O  0.01354566  0.20124209  0.20063472    -0.57300
O52         O  0.01217640  0.12622507  0.20772004    -0.56500
C53         C  0.48696137  0.26866083  0.09336752    -0.06000
C54         C  0.00865695  0.24614917  0.09495050    -0.17200
C55         C  0.00870377  0.22487875  0.12345020     0.11200
C56         C  0.48671568  0.22585419  0.15191610    -0.06000
C57         C  0.46417879  0.24743667  0.14983733    -0.17200
C58         C  0.46423814  0.26903358  0.12123216     0.11200
S59         S  0.03729932  0.19668405  0.12125421    -0.32200
S60         S  0.43567941  0.29710485  0.12331080    -0.32200
H61         H  0.45587860  0.32099527  0.12081111     0.29200
H62         H  0.01937750  0.17351609  0.13515147     0.29200
H63         H  0.02588415  0.24486754  0.07359469     0.19800
H64         H  0.44732471  0.24843876  0.17168037     0.19800
C65         C  0.51014684  0.27303926  0.40204143    -0.06000
C66         C  0.49277533  0.27963392  0.37031722    -0.17200
C67         C  0.49278806  0.26114733  0.33824980     0.11200
C68         C  0.50937146  0.23427766  0.33836490    -0.06000
C69         C  0.02805931  0.22850757  0.36944225    -0.17200
C70         C  0.02865300  0.24760680  0.40122025     0.11200
S71         S  0.47177644  0.27381928  0.29795896    -0.32200
S72         S  0.05200175  0.23731425  0.44053401    -0.32200
H73         H  0.03215705  0.24671252  0.46900403     0.29200
H74         H  0.49323559  0.26477576  0.27120507     0.29200
H75         H  0.47925717  0.29965335  0.37037236     0.19800
H76         H  0.04124004  0.20829451  0.36982927     0.19800
C77         C  0.39174327  0.43254040  0.41990286    -0.06000
C78         C  0.38132698  0.40494700  0.43309881    -0.17200
C79         C  0.40077939  0.38402867  0.44913870     0.11200
C80         C  0.43144126  0.39080194  0.45237477    -0.06000
C81         C  0.44176344  0.41817936  0.43872063    -0.17200
C82         C  0.42249594  0.43889214  0.42249957     0.11200
S83         S  0.38522040  0.34893237  0.46378031    -0.32200
S84         S  0.43892509  0.47263081  0.40464721    -0.32200
H85         H  0.42110200  0.47352312  0.37187834     0.29200
H86         H  0.40933485  0.33158215  0.45102109     0.29200
H87         H  0.35784527  0.39973299  0.43121004     0.19400
H88         H  0.46521484  0.42358709  0.44072998     0.19800
C89         C  0.43056822  0.10703912  0.29899614    -0.06000
C90         C  0.40987371  0.09273423  0.27504647    -0.17200
C91         C  0.38876371  0.07267551  0.28919136     0.11200
C92         C  0.38827913  0.06619775  0.32835980    -0.06000
C93         C  0.40865913  0.08079127  0.35238213    -0.17200
C94         C  0.42950696  0.10113530  0.33834561     0.11200
S95         S  0.36252072  0.05696591  0.25584420    -0.32200
S96         S  0.45334724  0.11940006  0.37253271    -0.32200
H97         H  0.45060346  0.14778263  0.35625793     0.29200
H98         H  0.33808153  0.05865500  0.28061455     0.29200
H99         H  0.41014051  0.09714799  0.24493556     0.19800
H100        H  0.40846816  0.07621217  0.38245847     0.19800
C101        C  0.23596267  0.51032075  0.04313240    -0.06000
C102        C  0.23271388  0.03239551  0.01536601    -0.17200
C103        C  0.25123226  0.03301792  0.48338148     0.11200
C104        C  0.27396683  0.51148897  0.47917158    -0.06000
C105        C  0.27811403  0.49043598  0.50774675    -0.17200
C106        C  0.25978120  0.48980396  0.03966623     0.11200
S107        S  0.24285079  0.06013378  0.44761100    -0.32200
S108        S  0.26858216  0.46221777  0.07473148    -0.32200
H109        H  0.26500053  0.48205391  0.10559089     0.29200
H110        H  0.24666606  0.04026523  0.41686127     0.29200
H111        H  0.21466650  0.04829427  0.01745115     0.19800
H112        H  0.29583175  0.47417661  0.50515784     0.19800
C113        C  0.21706277  0.98933284  0.23283995    -0.06000
C114        C  0.23555494  0.46446964  0.23766222    -0.17200
C115        C  0.25616860  0.46335251  0.26752525     0.11200
C116        C  0.25907453  0.98805569  0.29273212    -0.06000
C117        C  0.23909073  0.01200455  0.28905795    -0.17200
C118        C  0.21797545  0.01266271  0.25999742     0.11200
S119        S  0.27781240  0.42977825  0.27166167    -0.32200
S120        S  0.19257767  0.04380686  0.25940215    -0.32200
H121        H  0.16846843  0.02759427  0.24417219     0.29200
H122        H  0.27379503  0.42784410  0.31110788     0.29200
H123        H  0.23453794  0.44614454  0.21742565     0.19800
H124        H  0.24009450  0.03074537  0.30865137     0.19800
C125        C  0.06694813  0.39481197  0.03791520    -0.06000
C126        C  0.09401298  0.38381327  0.05184199    -0.17200
C127        C  0.11559916  0.40304344  0.06725759     0.11200
C128        C  0.10982810  0.43404471  0.06964297    -0.06000
C129        C  0.08341193  0.44506421  0.05381493    -0.17200
C130        C  0.06218247  0.42594000  0.03768541     0.11200
S131        S  0.15022786  0.38674266  0.08225294    -0.32200
S132        S  0.02984134  0.44271552  0.01646887    -0.32200
H133        H  0.02666687  0.42125458  0.98733672     0.29200
H134        H  0.16798276  0.41066392  0.07012266     0.29200
H135        H  0.09821896  0.35997818  0.05119394     0.19800
H136        H  0.07897484  0.46885679  0.05450799     0.19800
C137        C  0.06119836  0.10769531  0.19605090    -0.06000
C138        C  0.05172307  0.07853992  0.18753875    -0.17200
C139        C  0.07098892  0.05747507  0.17150902     0.11200
C140        C  0.10093939  0.06525238  0.16450837    -0.06000
C141        C  0.11015178  0.09477609  0.17146440    -0.17200
C142        C  0.09057790  0.11612423  0.18659355     0.11200
S143        S  0.05557508  0.02140646  0.15962616    -0.32200
S144        S  0.10421276  0.15377888  0.19176178    -0.32200
H145        H  0.07725886  0.16739115  0.18157303     0.29200
H146        H  0.07162993  0.51811198  0.12557714     0.29200
H147        H  0.02904539  0.07196594  0.19363118     0.19800
H148        H  0.13286181  0.10123682  0.16541502     0.19800
O149        O  0.19408984  0.02791539  0.57958907    -0.57700
C150        C  0.12321599  0.04292837  0.65163412     0.74900
O151        O  0.14506056  0.44856595  0.61843118    -0.58900
C152        C  0.21286246  0.50748227  0.57284229     0.74900
C153        C  0.19948023  0.99193258  0.69774471     0.77300
Cd154      Cd  0.16657846  0.99916167  0.62818291     1.37500
O155        O  0.14496567  0.04994675  0.63074920    -0.57700
O156        O  0.19809200  0.01632421  0.68023427    -0.56500
C157        C  0.12996925  0.45541885  0.58944473     0.77200
O158        O  0.18559805  0.47005498  0.68310139    -0.58900
O159        O  0.12185839  0.01594723  0.66166977    -0.57400
O160        O  0.20987354  0.48393739  0.59177565    -0.57300
O161        O  0.13191554  0.48220116  0.57879484    -0.56500
O162        O  0.30547580  0.47394165  0.82327013    -0.57700
C163        C  0.37010269  0.45477997  0.90542842     0.74900
O164        O  0.35742517  0.04722142  0.87839279    -0.58900
C165        C  0.28298833  0.99093887  0.82203943     0.74900
C166        C  0.29284157  0.50876642  0.94510509     0.77300
Cd167      Cd  0.32897881  0.49970202  0.87865357     1.37500
O168        O  0.34752923  0.44741121  0.88588114    -0.57700
O169        O  0.29989717  0.48328896  0.93233973    -0.56500
C170        C  0.36778286  0.04402823  0.84520309     0.77200
O171        O  0.30312059  0.03102643  0.92752321    -0.58900
O172        O  0.37329804  0.48235076  0.91221475    -0.57400
O173        O  0.28222929  0.01153019  0.84680628    -0.57300
O174        O  0.36015962  0.02049720  0.82757757    -0.56500
O175        O  0.46936659  0.30857632  0.55281271    -0.57700
C176        C  0.45341790  0.37030006  0.96921607     0.74900
O177        O  0.05021066  0.35114993  0.50427234    -0.58900
C178        C  0.48974487  0.29067099  0.56219489     0.74900
C179        C  0.50694560  0.29265114  0.93554736     0.77300
Cd180      Cd  0.49850472  0.33164378  0.00003007     1.37500
O181        O  0.44790127  0.35417263  0.99766691    -0.57700
O182        O  0.48157627  0.29890190  0.94870639    -0.56500
C183        C  0.04403935  0.37338303  0.52515256     0.77200
O184        O  0.02904500  0.30446709  0.95209150    -0.58900
O185        O  0.47951662  0.36868851  0.95593440    -0.57400
O186        O  0.01333021  0.29221846  0.54297701    -0.57300
O187        O  0.01709867  0.37619324  0.53480391    -0.56500
O188        O  0.46623294  0.19392777  0.69995825    -0.57700
C189        C  0.45293778  0.12743529  0.78190415     0.74900
O190        O  0.04752454  0.14777129  0.73882874    -0.58900
C191        C  0.48871830  0.20633602  0.68524453     0.74900
C192        C  0.50564239  0.21112919  0.80826896     0.77300
Cd193      Cd  0.49639608  0.16743151  0.74887624     1.37500
O194        O  0.44754459  0.14162083  0.75176969    -0.57700
O195        O  0.48281386  0.21033902  0.78739199    -0.56500
C196        C  0.03976845  0.12810098  0.71466993     0.77200
O197        O  0.02461813  0.19064411  0.80259182    -0.58900
O198        O  0.47850947  0.13134513  0.79615159    -0.57400
O199        O  0.01354907  0.20124860  0.70060727    -0.57300
O200        O  0.01222728  0.12617842  0.70771273    -0.56500
C201        C  0.48703340  0.26861698  0.59328785    -0.06000
C202        C  0.00879625  0.24617507  0.59496675    -0.17200
C203        C  0.00881410  0.22487956  0.62343433     0.11200
C204        C  0.48673814  0.22576686  0.65179186    -0.06000
C205        C  0.46412842  0.24726614  0.64960413    -0.17200
C206        C  0.46420717  0.26888120  0.62101792     0.11200
S207        S  0.03748727  0.19676179  0.62133032    -0.32200
S208        S  0.43552085  0.29682562  0.62293761    -0.32200
H209        H  0.45564071  0.32080248  0.62070732     0.29200
H210        H  0.01958799  0.17353902  0.63512977     0.29200
H211        H  0.02610302  0.24496498  0.57370769     0.19800
H212        H  0.44719554  0.24819264  0.67135252     0.19800
C213        C  0.50994515  0.27302365  0.90206893    -0.06000
C214        C  0.49247197  0.27953529  0.87040444    -0.17200
C215        C  0.49251711  0.26105997  0.83832429     0.11200
C216        C  0.50922464  0.23426633  0.83837467    -0.06000
C217        C  0.02799338  0.22857499  0.86939952    -0.17200
C218        C  0.02857294  0.24768049  0.90117453     0.11200
S219        S  0.47140357  0.27366737  0.79808660    -0.32200
S220        S  0.05209625  0.23752170  0.94037769    -0.32200
H221        H  0.03228810  0.24681970  0.96894077     0.29200
H222        H  0.49289867  0.26478245  0.77129513     0.29200
H223        H  0.47886559  0.29949132  0.87050407     0.19800
H224        H  0.04127238  0.20842624  0.86973778     0.19800
C225        C  0.39160235  0.43256522  0.91999858    -0.06000
C226        C  0.38113988  0.40500676  0.93324380    -0.17200
C227        C  0.40056572  0.38406875  0.94929002     0.11200
C228        C  0.43123925  0.39080201  0.95249802    -0.06000
C229        C  0.44159834  0.41815141  0.93879863    -0.17200
C230        C  0.42236146  0.43886957  0.92254576     0.11200
S231        S  0.38496134  0.34899847  0.96395024    -0.32200
S232        S  0.43883330  0.47254345  0.90455923    -0.32200
H233        H  0.42091430  0.47347253  0.87187737     0.29200
H234        H  0.40904382  0.33161352  0.95116913     0.29200
H235        H  0.35764706  0.39983532  0.93137920     0.19400
H236        H  0.46505884  0.42352672  0.94077745     0.19800
C237        C  0.43062809  0.10706605  0.79904176    -0.06000
C238        C  0.40991021  0.09276619  0.77512448    -0.17200
C239        C  0.38880653  0.07272056  0.78930517     0.11200
C240        C  0.38835078  0.06625445  0.82847758    -0.06000
C241        C  0.40875225  0.08084775  0.85247010    -0.17200
C242        C  0.42959487  0.10118063  0.83839652     0.11200
S243        S  0.36253769  0.05700724  0.75599368    -0.32200
S244        S  0.45346241  0.11946087  0.87254037    -0.32200
H245        H  0.45075717  0.14782676  0.85620927     0.29200
H246        H  0.33810940  0.05874815  0.78077682     0.29200
H247        H  0.41015626  0.09717074  0.74501239     0.19800
H248        H  0.40858129  0.07627823  0.88255078     0.19800
C249        C  0.23609957  0.51032548  0.54320369    -0.06000
C250        C  0.23282642  0.03239959  0.51543931    -0.17200
C251        C  0.25113752  0.03300624  0.98332579     0.11200
C252        C  0.27388066  0.51148496  0.97915146    -0.06000
C253        C  0.27798740  0.49041161  0.00770985    -0.17200
C254        C  0.25994143  0.48983902  0.53973627     0.11200
S255        S  0.24276374  0.06009140  0.94751427    -0.32200
S256        S  0.26882425  0.46232288  0.57485640    -0.32200
H257        H  0.26514085  0.48216965  0.60568492     0.29200
H258        H  0.24661682  0.04020279  0.91679198     0.29200
H259        H  0.21477539  0.04829022  0.51754162     0.19800
H260        H  0.29569615  0.47414278  0.00513173     0.19800
C261        C  0.21714990  0.98942572  0.73290479    -0.06000
C262        C  0.23553833  0.46450179  0.73788374    -0.17200
C263        C  0.25614391  0.46341511  0.76775813     0.11200
C264        C  0.25915536  0.98820802  0.79279868    -0.06000
C265        C  0.23928413  0.01222955  0.78896900    -0.17200
C266        C  0.21816417  0.01285790  0.75991773     0.11200
S267        S  0.27761552  0.42975119  0.77216241    -0.32200
S268        S  0.19287980  0.04409053  0.75916452    -0.32200
H269        H  0.16868460  0.02787997  0.74415633     0.29200
H270        H  0.27367371  0.42807604  0.81164419     0.29200
H271        H  0.23443902  0.44609785  0.71777246     0.19800
H272        H  0.24037640  0.03104691  0.80844204     0.19800
C273        C  0.06711443  0.39474328  0.53795724    -0.06000
C274        C  0.09412009  0.38372296  0.55203854    -0.17200
C275        C  0.11569508  0.40294371  0.56749252     0.11200
C276        C  0.10997031  0.43395757  0.56975273    -0.06000
C277        C  0.08361108  0.44499169  0.55379024    -0.17200
C278        C  0.06239610  0.42587599  0.53762181     0.11200
S279        S  0.15025077  0.38661146  0.58270025    -0.32200
S280        S  0.03014251  0.44266465  0.51620834    -0.32200
H281        H  0.02705673  0.42118320  0.48708447     0.29200
H282        H  0.16808471  0.41046256  0.57053602     0.29200
H283        H  0.09828683  0.35988127  0.55148053     0.19800
H284        H  0.07921009  0.46879355  0.55439630     0.19800
C285        C  0.06124511  0.10763670  0.69604529    -0.06000
C286        C  0.05178832  0.07845207  0.68766789    -0.17200
C287        C  0.07103974  0.05737929  0.67162121     0.11200
C288        C  0.10095825  0.06518362  0.66444343    -0.06000
C289        C  0.11014687  0.09473401  0.67126855    -0.17200
C290        C  0.09059104  0.11608157  0.68644368     0.11200
S291        S  0.05564434  0.02125893  0.65996813    -0.32200
S292        S  0.10421680  0.15374685  0.69151770    -0.32200
H293        H  0.07721975  0.16734863  0.68150168     0.29200
H294        H  0.07157939  0.51791825  0.62583163     0.29200
H295        H  0.02913892  0.07186132  0.69388576     0.19800
H296        H  0.13282935  0.10121362  0.66510042     0.19800
O297        O  0.19397281  0.52795902  0.07952049    -0.57700
C298        C  0.12319637  0.54300059  0.15170382     0.74900
O299        O  0.14496847  0.94860119  0.11826351    -0.58900
C300        C  0.21272867  0.00750823  0.07278265     0.74900
C301        C  0.19940279  0.49190148  0.19769625     0.77300
Cd302      Cd  0.16648422  0.49921198  0.12815729     1.37500
O303        O  0.14495607  0.55002133  0.13083765    -0.57700
O304        O  0.19807290  0.51630218  0.18019763    -0.56500
C305        C  0.12982270  0.95549464  0.08933921     0.77200
O306        O  0.18546168  0.97004884  0.18302217    -0.58900
O307        O  0.12180444  0.51601030  0.16169563    -0.57400
O308        O  0.20975433  0.98398814  0.09176514    -0.57300
O309        O  0.13171795  0.98230413  0.07878110    -0.56500
O310        O  0.30537886  0.97376528  0.32324205    -0.57700
C311        C  0.37018606  0.95472017  0.40533759     0.74900
O312        O  0.35732190  0.54715917  0.37826045    -0.58900
C313        C  0.28292780  0.49079359  0.32197418     0.74900
C314        C  0.29288281  0.00874232  0.44508404     0.77300
Cd315      Cd  0.32895134  0.99959675  0.37855740     1.37500
O316        O  0.34752890  0.94730221  0.38597640    -0.57700
O317        O  0.29991636  0.98325309  0.43233717    -0.56500
C318        C  0.36769509  0.54397421  0.34507804     0.77200
O319        O  0.30314357  0.53097583  0.42744584    -0.58900
O320        O  0.37340959  0.98231294  0.41194260    -0.57400
O321        O  0.28220917  0.51142576  0.34668714    -0.57300
O322        O  0.36010616  0.52043016  0.32745288    -0.56500
O323        O  0.46922000  0.80853188  0.05284359    -0.57700
C324        C  0.45361929  0.87030818  0.46912636     0.74900
O325        O  0.05000172  0.85127610  0.00410463    -0.58900
C326        C  0.48964156  0.79068918  0.06226541     0.74900
C327        C  0.50712709  0.79264659  0.43552810     0.77300
Cd328      Cd  0.49866599  0.83162589  0.49999996     1.37500
O329        O  0.44810101  0.85420544  0.49760070    -0.57700
O330        O  0.48175278  0.79891805  0.44865386    -0.56500
C331        C  0.04386084  0.87342873  0.02513960     0.77200
O332        O  0.02922642  0.80443244  0.45210418    -0.58900
O333        O  0.47971593  0.86867373  0.45583775    -0.57400
O334        O  0.01323282  0.79227603  0.04306282    -0.57300
O335        O  0.01695050  0.87614003  0.03497664    -0.56500
O336        O  0.46621311  0.69404071  0.20010936    -0.57700
C337        C  0.45286485  0.62744104  0.28190847     0.74900
O338        O  0.04746026  0.64777315  0.23889387    -0.58900
C339        C  0.48871044  0.70640077  0.18535992     0.74900
C340        C  0.50570673  0.71113137  0.30828845     0.77300
Cd341      Cd  0.49635508  0.66744473  0.24893122     1.37500
O342        O  0.44750887  0.64160088  0.25174370    -0.57700
O343        O  0.48287432  0.71039954  0.28741480    -0.56500
C344        C  0.03971148  0.62813410  0.21469195     0.77200
O345        O  0.02462023  0.69058506  0.30263575    -0.58900
O346        O  0.47840917  0.63139090  0.29621878    -0.57400
O347        O  0.01354975  0.70124045  0.20065757    -0.57300
O348        O  0.01217393  0.62622729  0.20770406    -0.56500
C349        C  0.48696669  0.76866071  0.09338616    -0.06000
C350        C  0.00867713  0.74616397  0.09498202    -0.17200
C351        C  0.00872600  0.72489137  0.12347899     0.11200
C352        C  0.48672685  0.72585163  0.15193133    -0.06000
C353        C  0.46417760  0.74742022  0.14984090    -0.17200
C354        C  0.46423261  0.76901744  0.12123643     0.11200
S355        S  0.03733627  0.69671132  0.12129348    -0.32200
S356        S  0.43565155  0.79706663  0.12329503    -0.32200
H357        H  0.45583142  0.82097301  0.12079082     0.29200
H358        H  0.01941958  0.67353171  0.13517069     0.29200
H359        H  0.02591224  0.74489408  0.07363648     0.19800
H360        H  0.44731369  0.74840996  0.17167394     0.19800
C361        C  0.51013138  0.77302797  0.40205078    -0.06000
C362        C  0.49276338  0.77962606  0.37032482    -0.17200
C363        C  0.49277706  0.76114133  0.33825560     0.11200
C364        C  0.50935893  0.73427026  0.33837044    -0.06000
C365        C  0.02804296  0.72849583  0.36945089    -0.17200
C366        C  0.02863427  0.74759365  0.40123077     0.11200
S367        S  0.47176824  0.77381666  0.29796423    -0.32200
S368        S  0.05197683  0.73729541  0.44054820    -0.32200
H369        H  0.03213300  0.74670016  0.46901585     0.29200
H370        H  0.49323112  0.76477872  0.27121227     0.29200
H371        H  0.47924713  0.79964722  0.37038010     0.19800
H372        H  0.04121975  0.70828463  0.36983862     0.19800
C373        C  0.39173338  0.93253394  0.41991540    -0.06000
C374        C  0.38131738  0.90494056  0.43311210    -0.17200
C375        C  0.40076969  0.88402187  0.44915177     0.11200
C376        C  0.43143146  0.89079556  0.45238918    -0.06000
C377        C  0.44175321  0.91817259  0.43873498    -0.17200
C378        C  0.42248659  0.93888501  0.42251233     0.11200
S379        S  0.38521222  0.84892379  0.46378936    -0.32200
S380        S  0.43891755  0.97262126  0.40465587    -0.32200
H381        H  0.42110031  0.97350571  0.37188136     0.29200
H382        H  0.40932863  0.83157536  0.45103208     0.29200
H383        H  0.35783480  0.89972590  0.43122240     0.19400
H384        H  0.46520631  0.92358039  0.44074448     0.19800
C385        C  0.43054582  0.60705654  0.29900929    -0.06000
C386        C  0.40983359  0.59277135  0.27506633    -0.17200
C387        C  0.38872339  0.57271463  0.28921335     0.11200
C388        C  0.38825676  0.56621975  0.32837699    -0.06000
C389        C  0.40865016  0.58079811  0.35239475    -0.17200
C390        C  0.42949875  0.60113977  0.33835618     0.11200
S391        S  0.36245938  0.55702665  0.25587676    -0.32200
S392        S  0.45336152  0.61938142  0.37253747    -0.32200
H393        H  0.45062564  0.64777090  0.35627965     0.29200
H394        H  0.33803446  0.55870258  0.28067129     0.29200
H395        H  0.41008847  0.59719699  0.24495670     0.19800
H396        H  0.40847123  0.57620649  0.38246783     0.19800
C397        C  0.23596519  0.01032231  0.04313897    -0.06000
C398        C  0.23271378  0.53239534  0.01536124    -0.17200
C399        C  0.25123084  0.53301558  0.48337698     0.11200
C400        C  0.27397072  0.01149374  0.47917695    -0.06000
C401        C  0.27812037  0.99044275  0.50775435    -0.17200
C402        C  0.25978751  0.98980959  0.03967539     0.11200
S403        S  0.24285172  0.56013270  0.44760702    -0.32200
S404        S  0.26859237  0.96222697  0.07474357    -0.32200
H405        H  0.26500976  0.98206507  0.10560078     0.29200
H406        H  0.24666484  0.54026391  0.41685701     0.29200
H407        H  0.21466746  0.54829749  0.01744851     0.19800
H408        H  0.29583984  0.97418560  0.50516668     0.19800
C409        C  0.21707201  0.48933817  0.23284619    -0.06000
C410        C  0.23556389  0.96447551  0.23763635    -0.17200
C411        C  0.25617899  0.96335886  0.26749784     0.11200
C412        C  0.25908157  0.48806013  0.29273903    -0.06000
C413        C  0.23911574  0.51202102  0.28904514    -0.17200
C414        C  0.21800076  0.51268020  0.25998604     0.11200
S415        S  0.27784948  0.92979927  0.27160184    -0.32200
S416        S  0.19262284  0.54384012  0.25937016    -0.32200
H417        H  0.16850186  0.52763472  0.24415849     0.29200
H418        H  0.27382496  0.92783375  0.31104389     0.29200
H419        H  0.23456035  0.94616004  0.21738548     0.19800
H420        H  0.24013331  0.53077297  0.30862560     0.19800
C421        C  0.06693805  0.89480993  0.03790292    -0.06000
C422        C  0.09401178  0.88381384  0.05180582    -0.17200
C423        C  0.11559809  0.90304452  0.06722001     0.11200
C424        C  0.10981873  0.93404321  0.06962732    -0.06000
C425        C  0.08339428  0.94506069  0.05382143    -0.17200
C426        C  0.06216371  0.92593721  0.03769411     0.11200
S427        S  0.15023725  0.88674910  0.08218622    -0.32200
S428        S  0.02980953  0.94271178  0.01650858    -0.32200
H429        H  0.02663198  0.92126228  0.98736338     0.29200
H430        H  0.16798041  0.91068671  0.07007977     0.29200
H431        H  0.09822457  0.85998008  0.05114130     0.19800
H432        H  0.07895081  0.96885488  0.05453174     0.19800
C433        C  0.06119672  0.60768876  0.19605740    -0.06000
C434        C  0.05172212  0.57853725  0.18752117    -0.17200
C435        C  0.07099288  0.55747742  0.17148959     0.11200
C436        C  0.10094642  0.56525576  0.16451195    -0.06000
C437        C  0.11015806  0.59477651  0.17149031    -0.17200
C438        C  0.09057989  0.61611986  0.18662139     0.11200
S439        S  0.05558217  0.52141360  0.15957474    -0.32200
S440        S  0.10421441  0.65377238  0.19182027    -0.32200
H441        H  0.07726359  0.66739018  0.18163011     0.29200
H442        H  0.07160791  0.01809380  0.12561874     0.29200
H443        H  0.02904226  0.57196269  0.19359610     0.19800
H444        H  0.13287053  0.60123821  0.16545798     0.19800
O445        O  0.19410340  0.52792455  0.57960389    -0.57700
C446        C  0.12322659  0.54293432  0.65164140     0.74900
O447        O  0.14504394  0.94856139  0.61842511    -0.58900
C448        C  0.21286223  0.00748187  0.57284533     0.74900
C449        C  0.19949241  0.49193564  0.69774924     0.77300
Cd450      Cd  0.16658807  0.49916748  0.62819098     1.37500
O451        O  0.14498100  0.54995569  0.63076604    -0.57700
O452        O  0.19811864  0.51632245  0.68022653    -0.56500
C453        C  0.12996127  0.95541343  0.58943101     0.77200
O454        O  0.18560007  0.97004765  0.68308442    -0.58900
O455        O  0.12186542  0.51595152  0.66166878    -0.57400
O456        O  0.20988352  0.98394296  0.59179310    -0.57300
O457        O  0.13191617  0.98219330  0.57877492    -0.56500
O458        O  0.30547001  0.97394218  0.82326488    -0.57700
C459        C  0.37009371  0.95477409  0.90543642     0.74900
O460        O  0.35742143  0.54722420  0.87841367    -0.58900
C461        C  0.28299544  0.49094022  0.82204505     0.74900
C462        C  0.29284329  0.00876954  0.94510852     0.77300
Cd463      Cd  0.32897577  0.99970005  0.87864957     1.37500
O464        O  0.34751548  0.94740488  0.88589823    -0.57700
O465        O  0.29989781  0.98329163  0.93234370    -0.56500
C466        C  0.36776872  0.54404342  0.84521723     0.77200
O467        O  0.30312025  0.53102428  0.92752358    -0.58900
O468        O  0.37329507  0.98234611  0.91220945    -0.57400
O469        O  0.28223692  0.51153189  0.84681126    -0.57300
O470        O  0.36014411  0.52051747  0.82758168    -0.56500
O471        O  0.46935188  0.80854970  0.55280577    -0.57700
C472        C  0.45340920  0.87029394  0.96922727     0.74900
O473        O  0.05019985  0.85114206  0.50427049    -0.58900
C474        C  0.48974454  0.79066877  0.56221246     0.74900
C475        C  0.50693302  0.79263961  0.93555565     0.77300
Cd476      Cd  0.49849537  0.83163503  0.00003650     1.37500
O477        O  0.44789415  0.85416934  0.99768128    -0.57700
O478        O  0.48156463  0.79888602  0.94872035    -0.56500
C479        C  0.04402914  0.87337706  0.52514792     0.77200
O480        O  0.02903276  0.80445835  0.95209530    -0.58900
O481        O  0.47950629  0.86867911  0.95594121    -0.57400
O482        O  0.01333920  0.79223831  0.54301591    -0.57300
O483        O  0.01708894  0.87618700  0.53480222    -0.56500
O484        O  0.46623892  0.69391319  0.69995648    -0.57700
C485        C  0.45292123  0.62744298  0.78191370     0.74900
O486        O  0.04751432  0.64774312  0.73886292    -0.58900
C487        C  0.48872578  0.70632793  0.68525541     0.74900
C488        C  0.50563406  0.71112374  0.80827122     0.77300
Cd489      Cd  0.49639122  0.66742157  0.74888368     1.37500
O490        O  0.44752838  0.64163558  0.75178473    -0.57700
O491        O  0.48281279  0.71034073  0.78738128    -0.56500
C492        C  0.03976371  0.62808915  0.71467988     0.77200
O493        O  0.02460407  0.69063101  0.80260681    -0.58900
O494        O  0.47849850  0.63133576  0.79615154    -0.57400
O495        O  0.01355384  0.70124424  0.70062792    -0.57300
O496        O  0.01222531  0.62618027  0.70769751    -0.56500
C497        C  0.48703829  0.76861548  0.59330657    -0.06000
C498        C  0.00881476  0.74618745  0.59499662    -0.17200
C499        C  0.00883542  0.72488978  0.62346107     0.11200
C500        C  0.48674940  0.72576275  0.65180654    -0.06000
C501        C  0.46412741  0.74724910  0.64960955    -0.17200
C502        C  0.46420269  0.76886470  0.62102347     0.11200
S503        S  0.03752279  0.69678621  0.62136648    -0.32200
S504        S  0.43549623  0.79678906  0.62292611    -0.32200
H505        H  0.45559833  0.82078043  0.62069003     0.29200
H506        H  0.01962866  0.67355239  0.63514716     0.29200
H507        H  0.02613005  0.74498829  0.57374460     0.19800
H508        H  0.44718837  0.74816389  0.67134561     0.19800
C509        C  0.50993169  0.77301317  0.90207654    -0.06000
C510        C  0.49246302  0.77952946  0.87040930    -0.17200
C511        C  0.49250948  0.76105543  0.83832749     0.11200
C512        C  0.50921404  0.73425978  0.83837871    -0.06000
C513        C  0.02797746  0.72856392  0.86940721    -0.17200
C514        C  0.02855536  0.74766708  0.90118405     0.11200
S515        S  0.47140055  0.77366695  0.79808802    -0.32200
S516        S  0.05207111  0.73750182  0.94039181    -0.32200
H517        H  0.03226314  0.74680624  0.96895178     0.29200
H518        H  0.49289910  0.76478505  0.77129952     0.29200
H519        H  0.47886003  0.79948658  0.87050828     0.19800
H520        H  0.04125397  0.70841311  0.86974673     0.19800
C521        C  0.39159304  0.93255922  0.92000997    -0.06000
C522        C  0.38113046  0.90500003  0.93325462    -0.17200
C523        C  0.40055734  0.88406183  0.94930001     0.11200
C524        C  0.43123035  0.89079599  0.95250998    -0.06000
C525        C  0.44158944  0.91814566  0.93881159    -0.17200
C526        C  0.42235231  0.93886332  0.92255767     0.11200
S527        S  0.38495497  0.84898899  0.96395434    -0.32200
S528        S  0.43882539  0.97253554  0.90456810    -0.32200
H529        H  0.42091164  0.97345770  0.87188109     0.29200
H530        H  0.40904031  0.83160689  0.95117565     0.29200
H531        H  0.35763954  0.89982808  0.93138885     0.19400
H532        H  0.46504902  0.92352091  0.94079097     0.19800
C533        C  0.43060553  0.60708381  0.79905544    -0.06000
C534        C  0.40987111  0.59280256  0.77514392    -0.17200
C535        C  0.38876714  0.57275887  0.78932692     0.11200
C536        C  0.38832825  0.56627668  0.82849461    -0.06000
C537        C  0.40874189  0.58085598  0.85248361    -0.17200
C538        C  0.42958520  0.60118673  0.83840770     0.11200
S539        S  0.36247855  0.55706600  0.75602517    -0.32200
S540        S  0.45347302  0.61944603  0.87254643    -0.32200
H541        H  0.45077583  0.64781794  0.85622975     0.29200
H542        H  0.33806388  0.55879339  0.78083149     0.29200
H543        H  0.41010612  0.59721797  0.74503438     0.19800
H544        H  0.40858217  0.57627494  0.88255953     0.19800
C545        C  0.23610187  0.01032769  0.54320917    -0.06000
C546        C  0.23282543  0.53239905  0.51543545    -0.17200
C547        C  0.25113666  0.53300496  0.98332069     0.11200
C548        C  0.27388434  0.01148913  0.97915765    -0.06000
C549        C  0.27799390  0.99041837  0.00771870    -0.17200
C550        C  0.25994743  0.98984498  0.53974419     0.11200
S551        S  0.24276634  0.56009218  0.94751022    -0.32200
S552        S  0.26883379  0.96233190  0.57486664    -0.32200
H553        H  0.26515147  0.98218105  0.60569294     0.29200
H554        H  0.24661761  0.54020387  0.91678719     0.29200
H555        H  0.21477744  0.54829071  0.51753944     0.19800
H556        H  0.29570540  0.97415111  0.00514173     0.19800
C557        C  0.21716006  0.48943052  0.73291062    -0.06000
C558        C  0.23554492  0.96450786  0.73786075    -0.17200
C559        C  0.25615200  0.96342093  0.76773272     0.11200
C560        C  0.25916339  0.48821181  0.79280463    -0.06000
C561        C  0.23930876  0.51224510  0.78895772    -0.17200
C562        C  0.21818885  0.51287336  0.75990713     0.11200
S563        S  0.27764896  0.92977074  0.77210602    -0.32200
S564        S  0.19292205  0.54411991  0.75913570    -0.32200
H565        H  0.16871661  0.52791567  0.74414357     0.29200
H566        H  0.27369985  0.92806553  0.81158406     0.29200
H567        H  0.23445803  0.94611044  0.71773362     0.19800
H568        H  0.24041360  0.53106989  0.80841580     0.19800
C569        C  0.06710454  0.89473932  0.53794729    -0.06000
C570        C  0.09411874  0.88372114  0.55200599    -0.17200
C571        C  0.11569418  0.90294270  0.56745776     0.11200
C572        C  0.10996181  0.93395400  0.56973787    -0.06000
C573        C  0.08359449  0.94498755  0.55379619    -0.17200
C574        C  0.06237847  0.92587119  0.53763054     0.11200
S575        S  0.15026012  0.88661557  0.58263745    -0.32200
S576        S  0.03011280  0.94265928  0.51624559    -0.32200
H577        H  0.02702420  0.92118853  0.48710940     0.29200
H578        H  0.16808275  0.91048222  0.57049515     0.29200
H579        H  0.09829162  0.85988103  0.55143308     0.19800
H580        H  0.07918844  0.96878653  0.55441781     0.19800
C581        C  0.06124390  0.60762976  0.69605362    -0.06000
C582        C  0.05178875  0.57844974  0.68764997    -0.17200
C583        C  0.07104397  0.55738184  0.67160167     0.11200
C584        C  0.10096625  0.56518717  0.66444849    -0.06000
C585        C  0.11015379  0.59473400  0.67129822    -0.17200
C586        C  0.09059432  0.61607681  0.68647514     0.11200
S587        S  0.05565156  0.52126679  0.65991400    -0.32200
S588        S  0.10422007  0.65373957  0.69158235    -0.32200
H589        H  0.07722688  0.66734725  0.68156219     0.29200
H590        H  0.07155588  0.01789882  0.62587505     0.29200
H591        H  0.02913278  0.57185729  0.69385019     0.19800
H592        H  0.13284140  0.60121508  0.66514789     0.19800
O593        O  0.69396109  0.02795024  0.07950871    -0.57700
C594        C  0.62318641  0.04299464  0.15169812     0.74900
O595        O  0.64498626  0.44860476  0.11826922    -0.58900
C596        C  0.71272860  0.50750911  0.07277880     0.74900
C597        C  0.69939149  0.99189801  0.19769152     0.77300
Cd598      Cd  0.66647476  0.99920622  0.12814994     1.37500
O599        O  0.64494119  0.05001255  0.13082201    -0.57700
O600        O  0.69804676  0.01630380  0.18020569    -0.56500
C601        C  0.62983109  0.45549880  0.08935304     0.77200
O602        O  0.68545908  0.47005650  0.18303938    -0.58900
O603        O  0.62179814  0.01600606  0.16169813    -0.57400
O604        O  0.70974541  0.48398381  0.09174871    -0.57300
O605        O  0.63171703  0.48231064  0.07880130    -0.56500
O606        O  0.80538328  0.47376428  0.32324867    -0.57700
C607        C  0.87019519  0.45472644  0.40532902     0.74900
O608        O  0.85732449  0.04715726  0.37823849    -0.58900
C609        C  0.78292186  0.99079232  0.32196770     0.74900
C610        C  0.79288085  0.50873870  0.44508118     0.77300
Cd611      Cd  0.82895409  0.49959889  0.37856167     1.37500
O612        O  0.84754400  0.44730909  0.38595633    -0.57700
O613        O  0.79991626  0.48325000  0.43233408    -0.56500
C614        C  0.86770938  0.04395918  0.34506366     0.77200
O615        O  0.80314602  0.03097834  0.42744591    -0.58900
O616        O  0.87341139  0.48231782  0.41195031    -0.57400
O617        O  0.78220133  0.01142275  0.34668304    -0.57300
O618        O  0.86012327  0.02040921  0.32744923    -0.56500
O619        O  0.96923447  0.30855851  0.05285209    -0.57700
C620        C  0.95362908  0.37031515  0.46911321     0.74900
O621        O  0.55001205  0.35128158  0.00411017    -0.58900
C622        C  0.98964141  0.29069047  0.06224798     0.74900
C623        C  0.00714077  0.29265847  0.43551846     0.77300
Cd624      Cd  0.99867610  0.33163528  0.49999205     1.37500
O625        O  0.94810907  0.35420954  0.49758437    -0.57700
O626        O  0.98176543  0.29893540  0.44863720    -0.56500
C627        C  0.54387070  0.37343299  0.02514660     0.77200
O628        O  0.52924046  0.30444059  0.45210057    -0.58900
O629        O  0.97972730  0.36868386  0.45582912    -0.57400
O630        O  0.51322309  0.29225448  0.04302340    -0.57300
O631        O  0.51695957  0.37614576  0.03497922    -0.56500
O632        O  0.96620714  0.19405544  0.20011186    -0.57700
C633        C  0.95288128  0.12743353  0.28189879     0.74900
O634        O  0.54747062  0.14780019  0.23886258    -0.58900
C635        C  0.98870297  0.20640746  0.18534802     0.74900
C636        C  0.00571595  0.21113730  0.30828491     0.77300
Cd637      Cd  0.99636007  0.16745447  0.24892365     1.37500
O638        O  0.94752553  0.14158557  0.25172787    -0.57700
O639        O  0.98287597  0.21039832  0.28742472    -0.56500
C640        C  0.53971679  0.12814524  0.21468430     0.77200
O641        O  0.52463573  0.19059826  0.30261986    -0.58900
O642        O  0.97841964  0.13140099  0.29621952    -0.57400
O643        O  0.51354585  0.20124170  0.20063506    -0.57300
O644        O  0.51217648  0.12622508  0.20772035    -0.56500
C645        C  0.98696121  0.26866096  0.09336714    -0.06000
C646        C  0.50865712  0.24614922  0.09495124    -0.17200
C647        C  0.50870407  0.22487878  0.12345078     0.11200
C648        C  0.98671550  0.22585423  0.15191554    -0.06000
C649        C  0.96417867  0.24743687  0.14983706    -0.17200
C650        C  0.96423810  0.26903379  0.12123183     0.11200
S651        S  0.53729968  0.19668413  0.12125499    -0.32200
S652        S  0.93567960  0.29710530  0.12331081    -0.32200
H653        H  0.95587890  0.32099565  0.12081125     0.29200
H654        H  0.51937774  0.17351609  0.13515181     0.29200
H655        H  0.52588483  0.24486762  0.07359483     0.19800
H656        H  0.94732478  0.24843897  0.17167991     0.19800
C657        C  0.01014624  0.27303878  0.40204169    -0.06000
C658        C  0.99277434  0.27963355  0.37031772    -0.17200
C659        C  0.99278720  0.26114696  0.33825013     0.11200
C660        C  0.00937096  0.23427740  0.33836481    -0.06000
C661        C  0.52806006  0.22850713  0.36944256    -0.17200
C662        C  0.52865333  0.24760718  0.40122036     0.11200
S663        S  0.97177530  0.27381900  0.29795959    -0.32200
S664        S  0.55200169  0.23731451  0.44053451    -0.32200
H665        H  0.53215673  0.24671289  0.46900421     0.29200
H666        H  0.99323440  0.26477598  0.27120535     0.29200
H667        H  0.97925665  0.29965204  0.37037313     0.19800
H668        H  0.54123919  0.20829637  0.36982979     0.19800
C669        C  0.89174332  0.43254046  0.41990279    -0.06000
C670        C  0.88132696  0.40494703  0.43309857    -0.17200
C671        C  0.90077940  0.38402877  0.44913861     0.11200
C672        C  0.93144123  0.39080214  0.45237503    -0.06000
C673        C  0.94176351  0.41817957  0.43872093    -0.17200
C674        C  0.92249598  0.43889225  0.42249959     0.11200
S675        S  0.88522048  0.34893234  0.46377988    -0.32200
S676        S  0.93892517  0.47263081  0.40464692    -0.32200
H677        H  0.92110180  0.47352298  0.37187830     0.29200
H678        H  0.90933503  0.33158211  0.45102093     0.29200
H679        H  0.85784535  0.39973303  0.43120971     0.19400
H680        H  0.96521465  0.42358725  0.44073034     0.19800
C681        C  0.93056812  0.10703918  0.29899560    -0.06000
C682        C  0.90987338  0.09273443  0.27504589    -0.17200
C683        C  0.88876347  0.07267566  0.28919126     0.11200
C684        C  0.88827919  0.06619787  0.32835962    -0.06000
C685        C  0.90865938  0.08079128  0.35238191    -0.17200
C686        C  0.92950712  0.10113534  0.33834500     0.11200
S687        S  0.86252017  0.05696606  0.25584443    -0.32200
S688        S  0.95334773  0.11940003  0.37253182    -0.32200
H689        H  0.95060391  0.14778266  0.35625719     0.29200
H690        H  0.83808118  0.05865512  0.28061513     0.29200
H691        H  0.91014002  0.09714807  0.24493579     0.19800
H692        H  0.90846852  0.07621230  0.38245778     0.19800
C693        C  0.73596274  0.51032063  0.04313272    -0.06000
C694        C  0.73271360  0.03239592  0.01536617    -0.17200
C695        C  0.75123275  0.03301798  0.48338145     0.11200
C696        C  0.77396693  0.51148889  0.47917142    -0.06000
C697        C  0.77811389  0.49043590  0.50774652    -0.17200
C698        C  0.75978132  0.48980421  0.03966682     0.11200
S699        S  0.74285139  0.06013401  0.44761102    -0.32200
S700        S  0.76858262  0.46221841  0.07473247    -0.32200
H701        H  0.76500026  0.48205456  0.10559172     0.29200
H702        H  0.74666660  0.04026545  0.41686124     0.29200
H703        H  0.71466794  0.04829308  0.01745092     0.19800
H704        H  0.79583169  0.47417611  0.50515746     0.19800
C705        C  0.71706311  0.98933298  0.23283983    -0.06000
C706        C  0.73555539  0.46447021  0.23766222    -0.17200
C707        C  0.75616889  0.46335257  0.26752487     0.11200
C708        C  0.75907488  0.98805613  0.29273205    -0.06000
C709        C  0.73909109  0.01200450  0.28905725    -0.17200
C710        C  0.71797575  0.01266298  0.25999733     0.11200
S711        S  0.77781245  0.42977824  0.27166192    -0.32200
S712        S  0.69257772  0.04380686  0.25940205    -0.32200
H713        H  0.66846852  0.02759411  0.24417235     0.29200
H714        H  0.77379508  0.42784458  0.31110816     0.29200
H715        H  0.73453817  0.44614340  0.21742400     0.19800
H716        H  0.74009489  0.03074701  0.30865252     0.19800
C717        C  0.56694772  0.39481231  0.03791507    -0.06000
C718        C  0.59401295  0.38381242  0.05184143    -0.17200
C719        C  0.61559889  0.40304382  0.06725707     0.11200
C720        C  0.60982769  0.43404479  0.06964294    -0.06000
C721        C  0.58341131  0.44506462  0.05381528    -0.17200
C722        C  0.56218191  0.42594005  0.03768571     0.11200
S723        S  0.65022782  0.38674299  0.08225191    -0.32200
S724        S  0.52984052  0.44271559  0.01646965    -0.32200
H725        H  0.52666612  0.42125480  0.98733729     0.29200
H726        H  0.66798254  0.41066442  0.07012161     0.29200
H727        H  0.59821836  0.35998150  0.05119316     0.19800
H728        H  0.57897425  0.46885639  0.05450868     0.19800
C729        C  0.56119831  0.10769505  0.19605155    -0.06000
C730        C  0.55172361  0.07853999  0.18753870    -0.17200
C731        C  0.57098881  0.05747500  0.17150902     0.11200
C732        C  0.60093953  0.06525227  0.16450880    -0.06000
C733        C  0.61015159  0.09477574  0.17146545    -0.17200
C734        C  0.59057815  0.11612394  0.18659468     0.11200
S735        S  0.55557506  0.02140654  0.15962543    -0.32200
S736        S  0.60421309  0.15377844  0.19176375    -0.32200
H737        H  0.57725950  0.16739108  0.18157445     0.29200
H738        H  0.57162981  0.51811190  0.12557716     0.29200
H739        H  0.52904369  0.07196547  0.19363128     0.19800
H740        H  0.63286289  0.10123673  0.16541612     0.19800
O741        O  0.69408990  0.02791543  0.57958875    -0.57700
C742        C  0.62321602  0.04292858  0.65163390     0.74900
O743        O  0.64506044  0.44856616  0.61843135    -0.58900
C744        C  0.71286247  0.50748244  0.57284211     0.74900
C745        C  0.69948014  0.99193258  0.69774466     0.77300
Cd746      Cd  0.66657851  0.99916185  0.62818280     1.37500
O747        O  0.64496579  0.04994697  0.63074904    -0.57700
O748        O  0.69809185  0.01632424  0.68023442    -0.56500
C749        C  0.62996919  0.45541894  0.58944473     0.77200
O750        O  0.68559778  0.47005514  0.68310127    -0.58900
O751        O  0.62185838  0.01594748  0.66166948    -0.57400
O752        O  0.70987375  0.48393776  0.59177588    -0.57300
O753        O  0.63191565  0.48220110  0.57879455    -0.56500
O754        O  0.80547518  0.47394143  0.82327057    -0.57700
C755        C  0.87010264  0.45478009  0.90542844     0.74900
O756        O  0.85742487  0.04722142  0.87839258    -0.58900
C757        C  0.78298798  0.99093882  0.82203957     0.74900
C758        C  0.79284156  0.50876641  0.94510544     0.77300
Cd759      Cd  0.82897848  0.49970193  0.87865371     1.37500
O760        O  0.84752888  0.44741116  0.88588184    -0.57700
O761        O  0.79989715  0.48328894  0.93234017    -0.56500
C762        C  0.86778270  0.04402811  0.84520298     0.77200
O763        O  0.80312071  0.03102642  0.92752330    -0.58900
O764        O  0.87329813  0.48235096  0.91221420    -0.57400
O765        O  0.78222904  0.01153026  0.84680629    -0.57300
O766        O  0.86015958  0.02049696  0.82757758    -0.56500
O767        O  0.96936642  0.30857614  0.55281272    -0.57700
C768        C  0.95341812  0.37030035  0.96921598     0.74900
O769        O  0.55021080  0.35114949  0.50427318    -0.58900
C770        C  0.98974480  0.29067104  0.56219520     0.74900
C771        C  0.00694579  0.29265134  0.93554735     0.77300
Cd772      Cd  0.99850490  0.33164400  0.00002995     1.37500
O773        O  0.94790154  0.35417293  0.99766683    -0.57700
O774        O  0.98157645  0.29890197  0.94870654    -0.56500
C775        C  0.54403933  0.37338296  0.52515273     0.77200
O776        O  0.52904481  0.30446672  0.95209174    -0.58900
O777        O  0.97951679  0.36868870  0.95593414    -0.57400
O778        O  0.51333017  0.29221821  0.54297646    -0.57300
O779        O  0.51709853  0.37619357  0.53480332    -0.56500
O780        O  0.96623300  0.19392778  0.69995859    -0.57700
C781        C  0.95293777  0.12743513  0.78190429     0.74900
O782        O  0.54752449  0.14777140  0.73882842    -0.58900
C783        C  0.98871839  0.20633602  0.68524483     0.74900
C784        C  0.00564235  0.21112917  0.80826921     0.77300
Cd785      Cd  0.99639609  0.16743142  0.74887653     1.37500
O786        O  0.94754474  0.14162049  0.75176964    -0.57700
O787        O  0.98281383  0.21033899  0.78739222    -0.56500
C788        C  0.53976845  0.12810117  0.71466952     0.77200
O789        O  0.52461818  0.19064415  0.80259144    -0.58900
O790        O  0.97850930  0.13134522  0.79615207    -0.57400
O791        O  0.51354903  0.20124874  0.70060704    -0.57300
O792        O  0.51222726  0.12617860  0.70771224    -0.56500
C793        C  0.98703345  0.26861701  0.59328811    -0.06000
C794        C  0.50879624  0.24617486  0.59496609    -0.17200
C795        C  0.50881387  0.22487936  0.62343392     0.11200
C796        C  0.98673809  0.22576690  0.65179227    -0.06000
C797        C  0.96412876  0.24726593  0.64960361    -0.17200
C798        C  0.96420693  0.26888102  0.62101812     0.11200
S799        S  0.53748700  0.19676147  0.62132986    -0.32200
S800        S  0.93552036  0.29682513  0.62293737    -0.32200
H801        H  0.95563996  0.32080218  0.62070719     0.29200
H802        H  0.51958770  0.17353880  0.63512954     0.29200
H803        H  0.52610231  0.24496459  0.57370739     0.19800
H804        H  0.94719388  0.24819244  0.67135432     0.19800
C805        C  0.00994519  0.27302385  0.90206895    -0.06000
C806        C  0.99247264  0.27953508  0.87040424    -0.17200
C807        C  0.99251743  0.26106021  0.83832414     0.11200
C808        C  0.00922467  0.23426628  0.83837485    -0.06000
C809        C  0.52799365  0.22857506  0.86939918    -0.17200
C810        C  0.52857308  0.24768058  0.90117428     0.11200
S811        S  0.97140454  0.27366773  0.79808605    -0.32200
S812        S  0.55209650  0.23752193  0.94037743    -0.32200
H813        H  0.53228810  0.24681941  0.96894051     0.29200
H814        H  0.99289977  0.26478217  0.77129513     0.29200
H815        H  0.97886523  0.29949305  0.87050362     0.19800
H816        H  0.54127284  0.20842668  0.86973718     0.19800
C817        C  0.89160240  0.43256538  0.91999857    -0.06000
C818        C  0.88113990  0.40500697  0.93324406    -0.17200
C819        C  0.90056587  0.38406902  0.94929017     0.11200
C820        C  0.93123947  0.39080223  0.95249784    -0.06000
C821        C  0.94159840  0.41815158  0.93879832    -0.17200
C822        C  0.92236155  0.43886977  0.92254559     0.11200
S823        S  0.88496146  0.34899886  0.96395063    -0.32200
S824        S  0.93883330  0.47254359  0.90455870    -0.32200
H825        H  0.92091428  0.47347236  0.87187685     0.29200
H826        H  0.90904376  0.33161366  0.95116955     0.29200
H827        H  0.85764726  0.39983551  0.93137960     0.19400
H828        H  0.96505935  0.42352699  0.94077707     0.19800
C829        C  0.93062808  0.10706587  0.79904183    -0.06000
C830        C  0.90991047  0.09276575  0.77512438    -0.17200
C831        C  0.88880678  0.07272008  0.78930503     0.11200
C832        C  0.88835071  0.06625427  0.82847747    -0.06000
C833        C  0.90875188  0.08084784  0.85247025    -0.17200
C834        C  0.92959453  0.10118075  0.83839661     0.11200
S835        S  0.86253836  0.05700634  0.75599329    -0.32200
S836        S  0.95346162  0.11946141  0.87254061    -0.32200
H837        H  0.95075629  0.14782713  0.85620910     0.29200
H838        H  0.83810972  0.05874748  0.78077584     0.29200
H839        H  0.91015678  0.09717008  0.74501242     0.19800
H840        H  0.90858072  0.07627856  0.88255055     0.19800
C841        C  0.73609957  0.51032558  0.54320346    -0.06000
C842        C  0.73282621  0.03240033  0.51543941    -0.17200
C843        C  0.75113778  0.03300620  0.98332595     0.11200
C844        C  0.77388072  0.51148507  0.97915190    -0.06000
C845        C  0.77798779  0.49041164  0.00771044    -0.17200
C846        C  0.75994134  0.48983895  0.53973602     0.11200
S847        S  0.74276398  0.06009155  0.94751457    -0.32200
S848        S  0.76882399  0.46232277  0.57485615    -0.32200
H849        H  0.76514110  0.48216961  0.60568471     0.29200
H850        H  0.74661713  0.04020296  0.91679226     0.29200
H851        H  0.71477778  0.04828900  0.51754154     0.19800
H852        H  0.79569617  0.47414354  0.00513267     0.19800
C853        C  0.71714963  0.98942552  0.73290474    -0.06000
C854        C  0.73553789  0.46450192  0.73788400    -0.17200
C855        C  0.75614345  0.46341506  0.76775823     0.11200
C856        C  0.75915491  0.98820793  0.79279896    -0.06000
C857        C  0.73928351  0.01222916  0.78896914    -0.17200
C858        C  0.71816361  0.01285766  0.75991800     0.11200
S859        S  0.77761523  0.42975124  0.77216239    -0.32200
S860        S  0.69287899  0.04409003  0.75916479    -0.32200
H861        H  0.66868405  0.02787928  0.74415624     0.29200
H862        H  0.77367323  0.42807580  0.81164411     0.29200
H863        H  0.73443874  0.44609759  0.71777187     0.19800
H864        H  0.74037564  0.03104688  0.80844276     0.19800
C865        C  0.56711440  0.39474314  0.53795753    -0.06000
C866        C  0.59411982  0.38372289  0.55203945    -0.17200
C867        C  0.61569482  0.40294358  0.56749338     0.11200
C868        C  0.60997030  0.43395744  0.56975284    -0.06000
C869        C  0.58361116  0.44499227  0.55378972    -0.17200
C870        C  0.56239636  0.42587581  0.53762131     0.11200
S871        S  0.65025031  0.38661131  0.58270195    -0.32200
S872        S  0.53014317  0.44266448  0.51620676    -0.32200
H873        H  0.52705758  0.42118271  0.48708321     0.29200
H874        H  0.66808461  0.41046195  0.57053709     0.29200
H875        H  0.59828647  0.35988050  0.55148200     0.19800
H876        H  0.57921077  0.46879170  0.55439514     0.19800
C877        C  0.56124505  0.10763689  0.69604487    -0.06000
C878        C  0.55178858  0.07845238  0.68766738    -0.17200
C879        C  0.57103969  0.05737951  0.67162086     0.11200
C880        C  0.60095838  0.06518388  0.66444312    -0.06000
C881        C  0.61014647  0.09473409  0.67126836    -0.17200
C882        C  0.59059116  0.11608181  0.68644328     0.11200
S883        S  0.55564436  0.02125913  0.65996798    -0.32200
S884        S  0.60421678  0.15374710  0.69151741    -0.32200
H885        H  0.57721971  0.16734881  0.68150139     0.29200
H886        H  0.57157961  0.51791879  0.62583073     0.29200
H887        H  0.52913821  0.07186134  0.69388544     0.19800
H888        H  0.63283079  0.10121416  0.66509988     0.19800
O889        O  0.69397280  0.52795892  0.07952077    -0.57700
C890        C  0.62319619  0.54300037  0.15170426     0.74900
O891        O  0.64496849  0.94860120  0.11826356    -0.58900
C892        C  0.71272875  0.00750831  0.07278276     0.74900
C893        C  0.69940296  0.49190151  0.19769599     0.77300
Cd894      Cd  0.66648403  0.49921185  0.12815734     1.37500
O895        O  0.64495577  0.55002116  0.13083795    -0.57700
O896        O  0.69807288  0.51630215  0.18019737    -0.56500
C897        C  0.62982260  0.95549471  0.08933929     0.77200
O898        O  0.68546190  0.97004884  0.18302225    -0.58900
O899        O  0.62180433  0.51601004  0.16169599    -0.57400
O900        O  0.70975432  0.98398810  0.09176511    -0.57300
O901        O  0.63171786  0.98230414  0.07878126    -0.56500
O902        O  0.80537943  0.97376593  0.32324152    -0.57700
C903        C  0.87018608  0.95472016  0.40533751     0.74900
O904        O  0.85732163  0.54715935  0.37826009    -0.58900
C905        C  0.78292801  0.49079370  0.32197390     0.74900
C906        C  0.79288306  0.00874231  0.44508396     0.77300
Cd907      Cd  0.82895153  0.99959688  0.37855736     1.37500
O908        O  0.84752914  0.94730236  0.38597589    -0.57700
O909        O  0.79991619  0.98325309  0.43233663    -0.56500
C910        C  0.86769508  0.54397419  0.34507787     0.77200
O911        O  0.80314400  0.53097577  0.42744605    -0.58900
O912        O  0.87340955  0.98231291  0.41194290    -0.57400
O913        O  0.78220912  0.51142562  0.34668723    -0.57300
O914        O  0.86010638  0.52042998  0.32745286    -0.56500
O915        O  0.96922002  0.80853204  0.05284344    -0.57700
C916        C  0.95361936  0.87030830  0.46912637     0.74900
O917        O  0.55000160  0.85127614  0.00410466    -0.58900
C918        C  0.98964152  0.79068923  0.06226519     0.74900
C919        C  0.00712657  0.79264629  0.43552841     0.77300
Cd920      Cd  0.99866591  0.83162586  0.50000005     1.37500
O921        O  0.94810105  0.85420570  0.49760094    -0.57700
O922        O  0.98175238  0.79891792  0.44865422    -0.56500
C923        C  0.54386071  0.87342879  0.02513952     0.77200
O924        O  0.52922676  0.80443289  0.45210392    -0.58900
O925        O  0.97971584  0.86867361  0.45583769    -0.57400
O926        O  0.51323284  0.79227603  0.04306301    -0.57300
O927        O  0.51695033  0.87614006  0.03497658    -0.56500
O928        O  0.96621286  0.69404041  0.20010872    -0.57700
C929        C  0.95286477  0.62744094  0.28190798     0.74900
O930        O  0.54746023  0.64777269  0.23889485    -0.58900
C931        C  0.98871016  0.70640066  0.18535939     0.74900
C932        C  0.00570636  0.71113126  0.30828830     0.77300
Cd933      Cd  0.99635493  0.66744476  0.24893072     1.37500
O934        O  0.94750865  0.64160102  0.25174351    -0.57700
O935        O  0.98287402  0.71039958  0.28741433    -0.56500
C936        C  0.53971149  0.62813387  0.21469270     0.77200
O937        O  0.52462063  0.69058505  0.30263598    -0.58900
O938        O  0.97840927  0.63139053  0.29621802    -0.57400
O939        O  0.51355004  0.70124028  0.20065797    -0.57300
O940        O  0.51217394  0.62622740  0.20770437    -0.56500
C941        C  0.98696658  0.76866073  0.09338587    -0.06000
C942        C  0.50867744  0.74616420  0.09498262    -0.17200
C943        C  0.50872643  0.72489167  0.12347962     0.11200
C944        C  0.98672656  0.72585151  0.15193085    -0.06000
C945        C  0.96417754  0.74742029  0.14984057    -0.17200
C946        C  0.96423263  0.76901762  0.12123629     0.11200
S947        S  0.53733692  0.69671184  0.12129420    -0.32200
S948        S  0.93565201  0.79706722  0.12329547    -0.32200
H949        H  0.95583212  0.82097337  0.12079085     0.29200
H950        H  0.51942033  0.67353205  0.13517114     0.29200
H951        H  0.52591282  0.74489446  0.07363706     0.19800
H952        H  0.94731371  0.74841023  0.17167401     0.19800
C953        C  0.01013091  0.77302742  0.40205111    -0.06000
C954        C  0.99276175  0.77962648  0.37032544    -0.17200
C955        C  0.99277615  0.76114077  0.33825609     0.11200
C956        C  0.00935821  0.73427030  0.33837043    -0.06000
C957        C  0.52804267  0.72849676  0.36945107    -0.17200
C958        C  0.52863471  0.74759365  0.40123081     0.11200
S959        S  0.97176657  0.77381619  0.29796521    -0.32200
S960        S  0.55197676  0.73729539  0.44054851    -0.32200
H961        H  0.53213281  0.74670046  0.46901580     0.29200
H962        H  0.99322953  0.76477904  0.27121288     0.29200
H963        H  0.97924764  0.79964391  0.37038104     0.19800
H964        H  0.54122132  0.70828206  0.36983916     0.19800
C965        C  0.89173351  0.93253391  0.41991523    -0.06000
C966        C  0.88131699  0.90494033  0.43311176    -0.17200
C967        C  0.90076986  0.88402178  0.44915147     0.11200
C968        C  0.93143131  0.89079549  0.45238904    -0.06000
C969        C  0.94175423  0.91817282  0.43873498    -0.17200
C970        C  0.92248647  0.93888491  0.42251206     0.11200
S971        S  0.88521246  0.84892346  0.46378852    -0.32200
S972        S  0.93891761  0.97262113  0.40465536    -0.32200
H973        H  0.92110004  0.97350556  0.37188108     0.29200
H974        H  0.90932918  0.83157528  0.45103164     0.29200
H975        H  0.85783590  0.89972590  0.43122208     0.19400
H976        H  0.96520346  0.92357977  0.44074423     0.19800
C977        C  0.93054580  0.60705642  0.29900908    -0.06000
C978        C  0.90983344  0.59277148  0.27506518    -0.17200
C979        C  0.88872329  0.57271457  0.28921324     0.11200
C980        C  0.88825672  0.56621973  0.32837665    -0.06000
C981        C  0.90865021  0.58079800  0.35239478    -0.17200
C982        C  0.92949888  0.60113961  0.33835570     0.11200
S983        S  0.86245934  0.55702647  0.25587654    -0.32200
S984        S  0.95336189  0.61938110  0.37253694    -0.32200
H985        H  0.95062608  0.64777059  0.35627912     0.29200
H986        H  0.83803438  0.55870216  0.28067107     0.29200
H987        H  0.91008828  0.59719657  0.24495896     0.19800
H988        H  0.90847140  0.57620648  0.38246671     0.19800
C989        C  0.73596539  0.01032227  0.04313910    -0.06000
C990        C  0.73271323  0.53239567  0.01536155    -0.17200
C991        C  0.75123103  0.53301565  0.48337683     0.11200
C992        C  0.77397095  0.01149382  0.47917686    -0.06000
C993        C  0.77812058  0.99044249  0.50775404    -0.17200
C994        C  0.75978775  0.98980977  0.03967575     0.11200
S995        S  0.74285214  0.56013282  0.44760683    -0.32200
S996        S  0.76859280  0.96222742  0.07474422    -0.32200
H997        H  0.76500964  0.98206571  0.10560111     0.29200
H998        H  0.74666529  0.54026406  0.41685680     0.29200
H999        H  0.71466874  0.54829599  0.01744842     0.19800
H1000       H  0.79583943  0.97418556  0.50516621     0.19800
C1001       C  0.71707236  0.48933818  0.23284570    -0.06000
C1002       C  0.73556432  0.96447574  0.23763625    -0.17200
C1003       C  0.75617939  0.96335915  0.26749777     0.11200
C1004       C  0.75908188  0.48806039  0.29273867    -0.06000
C1005       C  0.73911606  0.51202103  0.28904448    -0.17200
C1006       C  0.71800105  0.51268036  0.25998568     0.11200
S1007       S  0.77784974  0.92979950  0.27160217    -0.32200
S1008       S  0.69262301  0.54384014  0.25936982    -0.32200
H1009       H  0.66850211  0.52763457  0.24415824     0.29200
H1010       H  0.77382533  0.92783434  0.31104428     0.29200
H1011       H  0.73456079  0.94616031  0.21738558     0.19800
H1012       H  0.74013367  0.53077366  0.30862562     0.19800
C1013       C  0.56693783  0.89481019  0.03790294    -0.06000
C1014       C  0.59401176  0.88381321  0.05180568    -0.17200
C1015       C  0.61559791  0.90304467  0.06722004     0.11200
C1016       C  0.60981865  0.93404307  0.06962745    -0.06000
C1017       C  0.58339394  0.94506160  0.05382175    -0.17200
C1018       C  0.56216352  0.92593719  0.03769441     0.11200
S1019       S  0.65023705  0.88674904  0.08218629    -0.32200
S1020       S  0.52980922  0.94271204  0.01650928    -0.32200
H1021       H  0.52663155  0.92126266  0.98736393     0.29200
H1022       H  0.66798024  0.91068664  0.07007981     0.29200
H1023       H  0.59822409  0.85998206  0.05114116     0.19800
H1024       H  0.57895102  0.96885262  0.05453217     0.19800
C1025       C  0.56119658  0.60768848  0.19605817    -0.06000
C1026       C  0.55172237  0.57853725  0.18752139    -0.17200
C1027       C  0.57099260  0.55747726  0.17148993     0.11200
C1028       C  0.60094624  0.56525551  0.16451255    -0.06000
C1029       C  0.61015826  0.59477620  0.17149135    -0.17200
C1030       C  0.59057994  0.61611947  0.18662260     0.11200
S1031       S  0.55558187  0.52141357  0.15957459    -0.32200
S1032       S  0.60421474  0.65377183  0.19182224    -0.32200
H1033       H  0.57726413  0.66738991  0.18163167     0.29200
H1034       H  0.57160815  0.01809412  0.12561820     0.29200
H1035       H  0.52904052  0.57196223  0.19359657     0.19800
H1036       H  0.63286989  0.60123751  0.16545966     0.19800
O1037       O  0.69410316  0.52792460  0.57960329    -0.57700
C1038       C  0.62322681  0.54293461  0.65164116     0.74900
O1039       O  0.64504374  0.94856164  0.61842541    -0.58900
C1040       C  0.71286235  0.00748202  0.57284520     0.74900
C1041       C  0.69949227  0.49193572  0.69774916     0.77300
Cd1042     Cd  0.66658808  0.49916767  0.62819078     1.37500
O1043       O  0.64498137  0.54995595  0.63076599    -0.57700
O1044       O  0.69811864  0.51632252  0.68022649    -0.56500
C1045       C  0.62996134  0.95541352  0.58943105     0.77200
O1046       O  0.68559998  0.97004767  0.68308419    -0.58900
O1047       O  0.62186545  0.51595180  0.66166840    -0.57400
O1048       O  0.70988371  0.98394314  0.59179321    -0.57300
O1049       O  0.63191653  0.98219331  0.57877462    -0.56500
O1050       O  0.80546958  0.97394205  0.82326513    -0.57700
C1051       C  0.87009374  0.95477418  0.90543634     0.74900
O1052       O  0.85742098  0.54722422  0.87841370    -0.58900
C1053       C  0.78299494  0.49094014  0.82204528     0.74900
C1054       C  0.79284342  0.00876956  0.94510868     0.77300
Cd1055     Cd  0.82897561  0.99970001  0.87864953     1.37500
O1056       O  0.84751537  0.94740488  0.88589852    -0.57700
O1057       O  0.79989788  0.98329164  0.93234386    -0.56500
C1058       C  0.86776845  0.54404331  0.84521738     0.77200
O1059       O  0.80312017  0.53102425  0.92752377    -0.58900
O1060       O  0.87329519  0.98234626  0.91220900    -0.57400
O1061       O  0.78223656  0.51153193  0.84681134    -0.57300
O1062       O  0.86014394  0.52051728  0.82758191    -0.56500
O1063       O  0.96935191  0.80854959  0.55280586    -0.57700
C1064       C  0.95340941  0.87029413  0.96922709     0.74900
O1065       O  0.55020001  0.85114175  0.50427161    -0.58900
C1066       C  0.98974451  0.79066875  0.56221255     0.74900
C1067       C  0.00693314  0.79263957  0.93555571     0.77300
Cd1068     Cd  0.99849548  0.83163516  0.00003640     1.37500
O1069       O  0.94789436  0.85416959  0.99768117    -0.57700
O1070       O  0.98156471  0.79888625  0.94872014    -0.56500
C1071       C  0.54402907  0.87337722  0.52514805     0.77200
O1072       O  0.52903260  0.80445852  0.95209515    -0.58900
O1073       O  0.97950650  0.86867928  0.95594099    -0.57400
O1074       O  0.51333908  0.79223823  0.54301581    -0.57300
O1075       O  0.51708865  0.87618761  0.53480134    -0.56500
O1076       O  0.96623897  0.69391320  0.69995655    -0.57700
C1077       C  0.95292112  0.62744283  0.78191392     0.74900
O1078       O  0.54751441  0.64774336  0.73886265    -0.58900
C1079       C  0.98872592  0.70632773  0.68525537     0.74900
C1080       C  0.00563404  0.71112359  0.80827137     0.77300
Cd1081     Cd  0.99639118  0.66742143  0.74888388     1.37500
O1082       O  0.94752834  0.64163535  0.75178489    -0.57700
O1083       O  0.98281288  0.71034072  0.78738126    -0.56500
C1084       C  0.53976382  0.62808938  0.71467954     0.77200
O1085       O  0.52460414  0.69063125  0.80260654    -0.58900
O1086       O  0.97849832  0.63133572  0.79615187    -0.57400
O1087       O  0.51355376  0.70124450  0.70062788    -0.57300
O1088       O  0.51222547  0.62618043  0.70769720    -0.56500
C1089       C  0.98703856  0.76861534  0.59330637    -0.06000
C1090       C  0.50881544  0.74618741  0.59499548    -0.17200
C1091       C  0.50883505  0.72488985  0.62346123     0.11200
C1092       C  0.98674951  0.72576257  0.65180654    -0.06000
C1093       C  0.96412765  0.74724880  0.64960923    -0.17200
C1094       C  0.96420265  0.76886439  0.62102340     0.11200
S1095       S  0.53752244  0.69678616  0.62136644    -0.32200
S1096       S  0.93549596  0.79678842  0.62292576    -0.32200
H1097       H  0.95559776  0.82078006  0.62069003     0.29200
H1098       H  0.51962824  0.67355228  0.63514696     0.29200
H1099       H  0.52612724  0.74498842  0.57374779     0.19800
H1100       H  0.94718812  0.74816349  0.67134569     0.19800
C1101       C  0.00993177  0.77301305  0.90207669    -0.06000
C1102       C  0.99246320  0.77952938  0.87040942    -0.17200
C1103       C  0.99250956  0.76105538  0.83832761     0.11200
C1104       C  0.00921405  0.73425964  0.83837882    -0.06000
C1105       C  0.52797767  0.72856407  0.86940704    -0.17200
C1106       C  0.52855538  0.74766731  0.90118390     0.11200
S1107       S  0.97140056  0.77366693  0.79808820    -0.32200
S1108       S  0.55207110  0.73750208  0.94039175    -0.32200
H1109       H  0.53226300  0.74680647  0.96895160     0.29200
H1110       H  0.99289904  0.76478500  0.77129962     0.29200
H1111       H  0.97886026  0.79948664  0.87050841     0.19800
H1112       H  0.54125401  0.70841369  0.86974656     0.19800
C1113       C  0.89159319  0.93255938  0.92000982    -0.06000
C1114       C  0.88113058  0.90500011  0.93325436    -0.17200
C1115       C  0.90055761  0.88406194  0.94929969     0.11200
C1116       C  0.93123059  0.89079619  0.95250978    -0.06000
C1117       C  0.94158948  0.91814594  0.93881159    -0.17200
C1118       C  0.92235242  0.93886359  0.92255770     0.11200
S1119       S  0.88495531  0.84898898  0.96395376    -0.32200
S1120       S  0.93882545  0.97253588  0.90456838    -0.32200
H1121       H  0.92091195  0.97345803  0.87188115     0.29200
H1122       H  0.90904072  0.83160695  0.95117507     0.29200
H1123       H  0.85764008  0.89982816  0.93138850     0.19400
H1124       H  0.96504953  0.92352131  0.94079091     0.19800
C1125       C  0.93060540  0.60708363  0.79905561    -0.06000
C1126       C  0.90987127  0.59280205  0.77514405    -0.17200
C1127       C  0.88876728  0.57275840  0.78932700     0.11200
C1128       C  0.88832805  0.56627655  0.82849479    -0.06000
C1129       C  0.90874142  0.58085617  0.85248387    -0.17200
C1130       C  0.92958473  0.60118693  0.83840796     0.11200
S1131       S  0.86247896  0.55706526  0.75602514    -0.32200
S1132       S  0.95347213  0.61944676  0.87254675    -0.32200
H1133       H  0.95077498  0.64781845  0.85622946     0.29200
H1134       H  0.83806405  0.55879294  0.78083107     0.29200
H1135       H  0.91010652  0.59721721  0.74503429     0.19800
H1136       H  0.90858150  0.57627538  0.88255989     0.19800
C1137       C  0.73610217  0.01032761  0.54320904    -0.06000
C1138       C  0.73282566  0.53239912  0.51543525    -0.17200
C1139       C  0.75113673  0.53300485  0.98332100     0.11200
C1140       C  0.77388452  0.01148915  0.97915786    -0.06000
C1141       C  0.77799409  0.99041841  0.00771900    -0.17200
C1142       C  0.75994740  0.98984482  0.53974388     0.11200
S1143       S  0.74276619  0.56009210  0.94751054    -0.32200
S1144       S  0.76883350  0.96233133  0.57486604    -0.32200
H1145       H  0.76515165  0.98218041  0.60569250     0.29200
H1146       H  0.74661765  0.54020382  0.91678750     0.29200
H1147       H  0.71477751  0.54829123  0.51753935     0.19800
H1148       H  0.79570588  0.97415115  0.00514225     0.19800
C1149       C  0.71715972  0.48943051  0.73291065    -0.06000
C1150       C  0.73554478  0.96450826  0.73786118    -0.17200
C1151       C  0.75615173  0.96342080  0.76773275     0.11200
C1152       C  0.75916284  0.48821178  0.79280491    -0.06000
C1153       C  0.73930817  0.51224493  0.78895793    -0.17200
C1154       C  0.71818836  0.51287334  0.75990733     0.11200
S1155       S  0.77764880  0.92977073  0.77210621    -0.32200
S1156       S  0.69292146  0.54411977  0.75913576    -0.32200
H1157       H  0.66871611  0.52791557  0.74414330     0.29200
H1158       H  0.77369943  0.92806541  0.81158419     0.29200
H1159       H  0.73445792  0.94610928  0.71773211     0.19800
H1160       H  0.74041302  0.53107009  0.80841643     0.19800
C1161       C  0.56710442  0.89473956  0.53794752    -0.06000
C1162       C  0.59411842  0.88372073  0.55200694    -0.17200
C1163       C  0.61569382  0.90294274  0.56745864     0.11200
C1164       C  0.60996182  0.93395414  0.56973797    -0.06000
C1165       C  0.58359481  0.94498748  0.55379567    -0.17200
C1166       C  0.56237868  0.92587145  0.53763007     0.11200
S1167       S  0.65025934  0.88661521  0.58263932    -0.32200
S1168       S  0.53011340  0.94265962  0.51624431    -0.32200
H1169       H  0.52702497  0.92118853  0.48710853     0.29200
H1170       H  0.66808246  0.91048146  0.57049693     0.29200
H1171       H  0.59829073  0.85988246  0.55143463     0.19800
H1172       H  0.57918883  0.96878778  0.55441663     0.19800
C1173       C  0.56124421  0.60763009  0.69605330    -0.06000
C1174       C  0.55178834  0.57844990  0.68764959    -0.17200
C1175       C  0.57104428  0.55738223  0.67160111     0.11200
C1176       C  0.60096649  0.56518748  0.66444825    -0.06000
C1177       C  0.61015406  0.59473427  0.67129820    -0.17200
C1178       C  0.59059457  0.61607708  0.68647510     0.11200
S1179       S  0.55565174  0.52126726  0.65991313    -0.32200
S1180       S  0.60422040  0.65373983  0.69158264    -0.32200
H1181       H  0.57722726  0.66734746  0.68156216     0.29200
H1182       H  0.57155592  0.01789886  0.62587496     0.29200
H1183       H  0.52913474  0.57185818  0.69384887     0.19800
H1184       H  0.63284195  0.60121538  0.66514803     0.19800
loop_ 
_geom_bond_atom_site_label_1 
_geom_bond_atom_site_label_2 
_geom_bond_distance 
_geom_bond_site_symmetry_2 
_ccdc_geom_bond_type 
O1           Cd6   2.488   1_545  S
O1          C300   1.267       .  A
C2           O11   1.266       .  A
C2            O7   1.267       .  A
C2          C140   1.481       .  S
O3         Cd302   2.486       .  S
O3            C9   1.268       .  A
C4           O12   1.263       .  A
C4          O297   1.267       .  A
C4          C101   1.486       .  S
C5            O8   1.264   1_565  A
C5          O306   1.267       .  A
C5          C113   1.478       .  S
Cd6          O11   2.449   1_565  S
Cd6           O7   2.477   1_565  S
Cd6           O8   2.437   1_565  S
Cd6         O299   2.486       .  S
Cd6         O309   2.452       .  S
Cd6         O308   2.428       .  S
Cd6         O306   2.498       .  S
C9           O13   1.265       .  A
C9          C128   1.483       .  S
O10        Cd302   2.498       .  S
O10         C301   1.267       .  A
O12        Cd302   2.428       .  S
O13        Cd302   2.452       .  S
O14         Cd19   2.493       .  S
O14         C313   1.268       .  A
C15          O24   1.264       .  A
C15          O20   1.268       .  A
C15          C77   1.485       .  S
O16        Cd315   2.484   1_545  S
O16          C22   1.268       .  A
C17          O25   1.264   1_565  A
C17         O310   1.268       .  A
C17         C116   1.491       .  S
C18          O21   1.264       .  A
C18         O319   1.268       .  A
C18         C104   1.479       .  S
Cd19         O24   2.450       .  S
Cd19         O20   2.506       .  S
Cd19         O21   2.425       .  S
Cd19        O312   2.484       .  S
Cd19        O322   2.476       .  S
Cd19        O321   2.445       .  S
Cd19        O319   2.501       .  S
C22          O26   1.265       .  A
C22          C92   1.487       .  S
O23        Cd315   2.501   1_545  S
O23         C314   1.268       .  A
O25        Cd315   2.445   1_545  S
O26        Cd315   2.476   1_545  S
O27        Cd180   2.515       .  S
O27          C30   1.265       .  A
C28          O37   1.267       .  A
C28          O33   1.269       .  A
C28          C80   1.483       .  S
O29        Cd772   2.481   1_455  S
O29          C35   1.264       .  A
C30         O630   1.262       .  A
C30          C53   1.490       .  S
C31          O34   1.263       .  A
C31         O628   1.265       .  A
C31          C65   1.471       .  S
Cd32         O37   2.444       .  S
Cd32         O33   2.492       .  S
Cd32         O34   2.438       .  S
Cd32        O175   2.516       .  S
Cd32        O769   2.481       .  S
Cd32        O779   2.475       .  S
Cd32        O778   2.433       .  S
Cd32        O628   2.489       .  S
C35          O39   1.265       .  A
C35         C125   1.478       .  S
O36        Cd624   2.489   1_455  S
O36         C623   1.265       .  A
O38        Cd772   2.433   1_455  S
O38         C622   1.262   1_455  A
O39        Cd772   2.475   1_455  S
O40         Cd45   2.504       .  S
O40          C43   1.268       .  A
C41          O50   1.266       .  A
C41          O46   1.268       .  A
C41          C89   1.490       .  S
O42        Cd637   2.487   1_455  S
O42          C48   1.268       .  A
C43         O643   1.263       .  A
C43          C56   1.477       .  S
C44          O47   1.263       .  A
C44         O641   1.269       .  A
C44          C68   1.485       .  S
Cd45         O50   2.472       .  S
Cd45         O46   2.486       .  S
Cd45         O47   2.422       .  S
Cd45        O634   2.487       .  S
Cd45        O644   2.446       .  S
Cd45        O643   2.420       .  S
Cd45        O641   2.496       .  S
C48          O52   1.265       .  A
C48         C137   1.482       .  S
O49        Cd637   2.496   1_455  S
O49         C636   1.269       .  A
O51        Cd637   2.420   1_455  S
O51         C635   1.263   1_455  A
O52        Cd637   2.446   1_455  S
C53          C58   1.419       .  A
C53         C646   1.406       .  A
C54          C55   1.394       .  A
C54         C645   1.406   1_455  A
C54          H63   1.083       .  S
C55         C648   1.411   1_455  A
C55          S59   1.805       .  S
C56          C57   1.404       .  A
C56         C647   1.411       .  A
C57          C58   1.407       .  A
C57          H64   1.083       .  S
C58          S60   1.800       .  S
S59          H62   1.407       .  S
S60          H61   1.407       .  S
C65          C66   1.399       .  A
C65         C662   1.412       .  A
C66          C67   1.395       .  A
C66          H75   1.084       .  S
C67          C68   1.417       .  A
C67          S71   1.804       .  S
C68         C661   1.407       .  A
C69          C70   1.403       .  A
C69         C660   1.407       .  A
C69          H76   1.083       .  S
C70         C657   1.412       .  A
C70          S72   1.803       .  S
S71          H74   1.408       .  S
S72          H73   1.406       .  S
C77          C78   1.407       .  A
C77          C82   1.415       .  A
C78          C79   1.406       .  A
C78          H87   1.083       .  S
C79          C80   1.416       .  A
C79          S83   1.803       .  S
C80          C81   1.402       .  A
C81          C82   1.397       .  A
C81          H88   1.084       .  S
C82          S84   1.803       .  S
S83          H86   1.407       .  S
S84          H85   1.407       .  S
C89          C90   1.406       .  A
C89          C94   1.417       .  A
C90          C91   1.403       .  A
C90          H99   1.083       .  S
C91          C92   1.416       .  A
C91          S95   1.803       .  S
C92          C93   1.404       .  A
C93          C94   1.402       .  A
C93         H100   1.083       .  S
C94          S96   1.802       .  S
S95          H98   1.407       .  S
S96          H97   1.407       .  S
C101        C106   1.417       .  A
C101        C398   1.408       .  A
C102        C397   1.408       .  A
C102        C251   1.403   1_554  A
C102        H111   1.083       .  S
C103        C250   1.403       .  A
C103        C400   1.414       .  A
C103        S107   1.802       .  S
C104        C105   1.401       .  A
C104        C399   1.414       .  A
C105        C254   1.395       .  A
C105        H112   1.084       .  S
C106        C253   1.395       .  A
C106        S108   1.803       .  S
S107        H110   1.407       .  S
S108        H109   1.408       .  S
C113        C118   1.411   1_565  A
C113        C410   1.403       .  A
C114        C115   1.404       .  A
C114        C409   1.403       .  A
C114        H123   1.083       .  S
C115        C412   1.419       .  A
C115        S119   1.800       .  S
C116        C117   1.408   1_565  A
C116        C411   1.419       .  A
C117        C118   1.397       .  A
C117        H124   1.083       .  S
C118        S120   1.805       .  S
S119        H122   1.408       .  S
S120        H121   1.407       .  S
C125        C126   1.404       .  A
C125        C130   1.412       .  A
C126        C127   1.403       .  A
C126        H135   1.085       .  S
C127        C128   1.416       .  A
C127        S131   1.802       .  S
C128        C129   1.405       .  A
C129        C130   1.399       .  A
C129        H136   1.085       .  S
C130        S132   1.804       .  S
S131        H134   1.407       .  S
S132        H133   1.407   1_554  S
C137        C138   1.403       .  A
C137        C142   1.416       .  A
C138        C139   1.398       .  A
C138        H147   1.084       .  S
C139        C140   1.414       .  A
C139        S143   1.803       .  S
C140        C141   1.405       .  A
C141        C142   1.403       .  A
C141        H148   1.084       .  S
C142        S144   1.802       .  S
S143        H442   1.408       .  S
S144        H145   1.406       .  S
H146        S439   1.408       .  S
O149       Cd154   2.487   1_545  S
O149        C448   1.267       .  A
C150        O159   1.266       .  A
C150        O155   1.267       .  A
C150        C288   1.482       .  S
O151       Cd450   2.486       .  S
O151        C157   1.268       .  A
C152        O445   1.267       .  A
C152        O160   1.263       .  A
C152        C249   1.486       .  S
C153        O454   1.267       .  A
C153        O156   1.264   1_565  A
C153        C261   1.478       .  S
Cd154       O447   2.486       .  S
Cd154       O457   2.451       .  S
Cd154       O456   2.429       .  S
Cd154       O159   2.449   1_565  S
Cd154       O155   2.477   1_565  S
Cd154       O454   2.499       .  S
Cd154       O156   2.436   1_565  S
C157        O161   1.265       .  A
C157        C276   1.483       .  S
O158       Cd450   2.499       .  S
O158        C449   1.267       .  A
O160       Cd450   2.429       .  S
O161       Cd450   2.451       .  S
O162       Cd167   2.492       .  S
O162        C461   1.268       .  A
C163        O172   1.264       .  A
C163        O168   1.268       .  A
C163        C225   1.484       .  S
O164       Cd463   2.484   1_545  S
O164        C170   1.268       .  A
C165        O458   1.268       .  A
C165        O173   1.264   1_565  A
C165        C264   1.491       .  S
C166        O467   1.268       .  A
C166        O169   1.264       .  A
C166        C252   1.478       .  S
Cd167       O460   2.484       .  S
Cd167       O470   2.475       .  S
Cd167       O469   2.444       .  S
Cd167       O172   2.449       .  S
Cd167       O168   2.504       .  S
Cd167       O467   2.501       .  S
Cd167       O169   2.425       .  S
C170        O174   1.265       .  A
C170        C240   1.487       .  S
O171       Cd463   2.501   1_545  S
O171        C462   1.268       .  A
O173       Cd463   2.444   1_545  S
O174       Cd463   2.475   1_545  S
O175        C178   1.265       .  A
C176        O185   1.267       .  A
C176        O181   1.268       .  A
C176        C228   1.483       .  S
O177       Cd624   2.481   1_455  S
O177        C183   1.264       .  A
C178        O778   1.262       .  A
C178        C201   1.490       .  S
C179        O776   1.265       .  A
C179        O182   1.263       .  A
C179        C213   1.471       .  S
Cd180       O621   2.481       .  S
Cd180       O631   2.475       .  S
Cd180       O630   2.433       .  S
Cd180       O185   2.442   1_554  S
Cd180       O181   2.493   1_554  S
Cd180       O776   2.489   1_554  S
Cd180       O182   2.439   1_554  S
C183        O187   1.265       .  A
C183        C273   1.478       .  S
O184       Cd772   2.489   1_456  S
O184        C771   1.265       .  A
O186       Cd624   2.433   1_455  S
O186        C770   1.262   1_455  A
O187       Cd624   2.475   1_455  S
O188       Cd193   2.505       .  S
O188        C191   1.268       .  A
C189        O198   1.266       .  A
C189        O194   1.268       .  A
C189        C237   1.490       .  S
O190       Cd785   2.488   1_455  S
O190        C196   1.268       .  A
C191        O791   1.263       .  A
C191        C204   1.478       .  S
C192        O789   1.269       .  A
C192        O195   1.263       .  A
C192        C216   1.485       .  S
Cd193       O782   2.488       .  S
Cd193       O792   2.446       .  S
Cd193       O791   2.420       .  S
Cd193       O198   2.472       .  S
Cd193       O194   2.485       .  S
Cd193       O789   2.497       .  S
Cd193       O195   2.422       .  S
C196        O200   1.265       .  A
C196        C285   1.482       .  S
O197       Cd785   2.497   1_455  S
O197        C784   1.269       .  A
O199       Cd785   2.420   1_455  S
O199        C783   1.263   1_455  A
O200       Cd785   2.446   1_455  S
C201        C794   1.406       .  A
C201        C206   1.419       .  A
C202        C793   1.406   1_455  A
C202        C203   1.394       .  A
C202        H211   1.083       .  S
C203        C796   1.411   1_455  A
C203        S207   1.805       .  S
C204        C795   1.411       .  A
C204        C205   1.404       .  A
C205        C206   1.407       .  A
C205        H212   1.083       .  S
C206        S208   1.800       .  S
S207        H210   1.407       .  S
S208        H209   1.407       .  S
C213        C214   1.399       .  A
C213        C810   1.412       .  A
C214        C215   1.395       .  A
C214        H223   1.084       .  S
C215        C216   1.417       .  A
C215        S219   1.804       .  S
C216        C809   1.407       .  A
C217        C808   1.407       .  A
C217        C218   1.403       .  A
C217        H224   1.083       .  S
C218        C805   1.412       .  A
C218        S220   1.803       .  S
S219        H222   1.408       .  S
S220        H221   1.406       .  S
C225        C226   1.407       .  A
C225        C230   1.414       .  A
C226        C227   1.406       .  A
C226        H235   1.083       .  S
C227        C228   1.416       .  A
C227        S231   1.802       .  S
C228        C229   1.402       .  A
C229        C230   1.397       .  A
C229        H236   1.084       .  S
C230        S232   1.803       .  S
S231        H234   1.407       .  S
S232        H233   1.407       .  S
C237        C238   1.406       .  A
C237        C242   1.417       .  A
C238        C239   1.403       .  A
C238        H247   1.083       .  S
C239        C240   1.416       .  A
C239        S243   1.803       .  S
C240        C241   1.404       .  A
C241        C242   1.402       .  A
C241        H248   1.083       .  S
C242        S244   1.802       .  S
S243        H246   1.407       .  S
S244        H245   1.407       .  S
C249        C546   1.408       .  A
C249        C254   1.417       .  A
C250        C545   1.408       .  A
C250        H259   1.083       .  S
C251        C548   1.413       .  A
C251        S255   1.802       .  S
C252        C547   1.413       .  A
C252        C253   1.401   1_556  A
C253        H260   1.084       .  S
C254        S256   1.803       .  S
S255        H258   1.407       .  S
S256        H257   1.408       .  S
C261        C558   1.403       .  A
C261        C266   1.411   1_565  A
C262        C557   1.403       .  A
C262        C263   1.404       .  A
C262        H271   1.083       .  S
C263        C560   1.419       .  A
C263        S267   1.800       .  S
C264        C559   1.419       .  A
C264        C265   1.408   1_565  A
C265        C266   1.397       .  A
C265        H272   1.083       .  S
C266        S268   1.805       .  S
S267        H270   1.408       .  S
S268        H269   1.407       .  S
C273        C274   1.404       .  A
C273        C278   1.412       .  A
C274        C275   1.403       .  A
C274        H283   1.085       .  S
C275        C276   1.415       .  A
C275        S279   1.802       .  S
C276        C277   1.405       .  A
C277        C278   1.399       .  A
C277        H284   1.085       .  S
C278        S280   1.804       .  S
S279        H282   1.407       .  S
S280        H281   1.407       .  S
C285        C286   1.403       .  A
C285        C290   1.416       .  A
C286        C287   1.398       .  A
C286        H295   1.084       .  S
C287        C288   1.414       .  A
C287        S291   1.803       .  S
C288        C289   1.405       .  A
C289        C290   1.403       .  A
C289        H296   1.084       .  S
C290        S292   1.803       .  S
S291        H590   1.408       .  S
S292        H293   1.406       .  S
H294        S587   1.408       .  S
O297       Cd302   2.488       .  S
C298        O307   1.266       .  A
C298        O303   1.267       .  A
C298        C436   1.481       .  S
O299        C305   1.268       .  A
C300        O308   1.263   1_545  A
C300        C397   1.486       .  S
C301        O304   1.264       .  A
C301        C409   1.478       .  S
Cd302       O307   2.449       .  S
Cd302       O303   2.477       .  S
Cd302       O304   2.437       .  S
C305        O309   1.265       .  A
C305        C424   1.483       .  S
O310       Cd315   2.493       .  S
C311        O320   1.264       .  A
C311        O316   1.268       .  A
C311        C373   1.485       .  S
O312        C318   1.268       .  A
C313        O321   1.264       .  A
C313        C412   1.491       .  S
C314        O317   1.264   1_545  A
C314        C400   1.479       .  S
Cd315       O320   2.450       .  S
Cd315       O316   2.506       .  S
Cd315       O317   2.425       .  S
C318        O322   1.265       .  A
C318        C388   1.487       .  S
O323       Cd476   2.515       .  S
O323        C326   1.265       .  A
C324        O333   1.267       .  A
C324        O329   1.269       .  A
C324        C376   1.483       .  S
O325      Cd1068   2.481   1_455  S
O325        C331   1.264       .  A
C326        O926   1.262       .  A
C326        C349   1.490       .  S
C327        O924   1.265       .  A
C327        O330   1.263       .  A
C327        C361   1.471       .  S
Cd328       O471   2.516       .  S
Cd328      O1065   2.481       .  S
Cd328      O1075   2.475       .  S
Cd328      O1074   2.433       .  S
Cd328       O333   2.443       .  S
Cd328       O329   2.492       .  S
Cd328       O924   2.489       .  S
Cd328       O330   2.438       .  S
C331        O335   1.265       .  A
C331        C421   1.478       .  S
O332       Cd920   2.489   1_455  S
O332        C919   1.265       .  A
O334      Cd1068   2.433   1_455  S
O334        C918   1.262   1_455  A
O335      Cd1068   2.475   1_455  S
O336       Cd341   2.504       .  S
O336        C339   1.268       .  A
C337        O346   1.266       .  A
C337        O342   1.268       .  A
C337        C385   1.490       .  S
O338       Cd933   2.487   1_455  S
O338        C344   1.268       .  A
C339        O939   1.263       .  A
C339        C352   1.477       .  S
C340        O937   1.269       .  A
C340        O343   1.263       .  A
C340        C364   1.485       .  S
Cd341       O930   2.487       .  S
Cd341       O940   2.446       .  S
Cd341       O939   2.420       .  S
Cd341       O346   2.472       .  S
Cd341       O342   2.485       .  S
Cd341       O937   2.496       .  S
Cd341       O343   2.422       .  S
C344        O348   1.265       .  A
C344        C433   1.482       .  S
O345       Cd933   2.496   1_455  S
O345        C932   1.269       .  A
O347       Cd933   2.420   1_455  S
O347        C931   1.263   1_455  A
O348       Cd933   2.446   1_455  S
C349        C942   1.406       .  A
C349        C354   1.419       .  A
C350        C941   1.406   1_455  A
C350        C351   1.394       .  A
C350        H359   1.083       .  S
C351        C944   1.411   1_455  A
C351        S355   1.805       .  S
C352        C943   1.411       .  A
C352        C353   1.404       .  A
C353        C354   1.407       .  A
C353        H360   1.083       .  S
C354        S356   1.800       .  S
S355        H358   1.407       .  S
S356        H357   1.407       .  S
C361        C362   1.399       .  A
C361        C958   1.412       .  A
C362        C363   1.395       .  A
C362        H371   1.084       .  S
C363        C364   1.417       .  A
C363        S367   1.804       .  S
C364        C957   1.407       .  A
C365        C956   1.407       .  A
C365        C366   1.403       .  A
C365        H372   1.083       .  S
C366        C953   1.412       .  A
C366        S368   1.803       .  S
S367        H370   1.408       .  S
S368        H369   1.406       .  S
C373        C374   1.407       .  A
C373        C378   1.415       .  A
C374        C375   1.406       .  A
C374        H383   1.083       .  S
C375        C376   1.416       .  A
C375        S379   1.803       .  S
C376        C377   1.402       .  A
C377        C378   1.397       .  A
C377        H384   1.084       .  S
C378        S380   1.803       .  S
S379        H382   1.407       .  S
S380        H381   1.407       .  S
C385        C386   1.406       .  A
C385        C390   1.417       .  A
C386        C387   1.403       .  A
C386        H395   1.083       .  S
C387        C388   1.416       .  A
C387        S391   1.803       .  S
C388        C389   1.404       .  A
C389        C390   1.402       .  A
C389        H396   1.083       .  S
C390        S392   1.802       .  S
S391        H394   1.407       .  S
S392        H393   1.407       .  S
C397        C402   1.417   1_545  A
C398        C547   1.403   1_554  A
C398        H407   1.083       .  S
C399        C546   1.403       .  A
C399        S403   1.802       .  S
C400        C401   1.401   1_545  A
C401        C550   1.395       .  A
C401        H408   1.084       .  S
C402        C549   1.395       .  A
C402        S404   1.803       .  S
S403        H406   1.407       .  S
S404        H405   1.408       .  S
C409        C414   1.411       .  A
C410        C411   1.404       .  A
C410        H419   1.083       .  S
C411        S415   1.800       .  S
C412        C413   1.408       .  A
C413        C414   1.397       .  A
C413        H420   1.083       .  S
C414        S416   1.805       .  S
S415        H418   1.408       .  S
S416        H417   1.407       .  S
C421        C422   1.404       .  A
C421        C426   1.412       .  A
C422        C423   1.403       .  A
C422        H431   1.085       .  S
C423        C424   1.416       .  A
C423        S427   1.802       .  S
C424        C425   1.405       .  A
C425        C426   1.399       .  A
C425        H432   1.085       .  S
C426        S428   1.804       .  S
S427        H430   1.407       .  S
S428        H429   1.407   1_554  S
C433        C434   1.403       .  A
C433        C438   1.416       .  A
C434        C435   1.398       .  A
C434        H443   1.084       .  S
C435        C436   1.414       .  A
C435        S439   1.803       .  S
C436        C437   1.405       .  A
C437        C438   1.403       .  A
C437        H444   1.084       .  S
C438        S440   1.803       .  S
S440        H441   1.406       .  S
O445       Cd450   2.487       .  S
C446        O455   1.265       .  A
C446        O451   1.267       .  A
C446        C584   1.482       .  S
O447        C453   1.268       .  A
C448        O456   1.263   1_545  A
C448        C545   1.486       .  S
C449        O452   1.264       .  A
C449        C557   1.478       .  S
Cd450       O455   2.449       .  S
Cd450       O451   2.477       .  S
Cd450       O452   2.436       .  S
C453        O457   1.265       .  A
C453        C572   1.483       .  S
O458       Cd463   2.492       .  S
C459        O468   1.264       .  A
C459        O464   1.268       .  A
C459        C521   1.484       .  S
O460        C466   1.268       .  A
C461        O469   1.264       .  A
C461        C560   1.491       .  S
C462        O465   1.264   1_545  A
C462        C548   1.478       .  S
Cd463       O468   2.449       .  S
Cd463       O464   2.505       .  S
Cd463       O465   2.425       .  S
C466        O470   1.265       .  A
C466        C536   1.487       .  S
O471        C474   1.265       .  A
C472        O481   1.267       .  A
C472        O477   1.268       .  A
C472        C524   1.483       .  S
O473       Cd920   2.481   1_455  S
O473        C479   1.264       .  A
C474       O1074   1.262       .  A
C474        C497   1.490       .  S
C475       O1072   1.265       .  A
C475        O478   1.263       .  A
C475        C509   1.471       .  S
Cd476       O917   2.481       .  S
Cd476       O927   2.475       .  S
Cd476       O926   2.433       .  S
Cd476       O481   2.442   1_554  S
Cd476       O477   2.493   1_554  S
Cd476      O1072   2.489   1_554  S
Cd476       O478   2.439   1_554  S
C479        O483   1.265       .  A
C479        C569   1.478       .  S
O480      Cd1068   2.489   1_456  S
O480       C1067   1.265       .  A
O482       Cd920   2.433   1_455  S
O482       C1066   1.262   1_455  A
O483       Cd920   2.474   1_455  S
O484       Cd489   2.505       .  S
O484        C487   1.268       .  A
C485        O494   1.266       .  A
C485        O490   1.268       .  A
C485        C533   1.490       .  S
O486      Cd1081   2.488   1_455  S
O486        C492   1.268       .  A
C487       O1087   1.263       .  A
C487        C500   1.478       .  S
C488       O1085   1.269       .  A
C488        O491   1.263       .  A
C488        C512   1.485       .  S
Cd489      O1078   2.488       .  S
Cd489      O1088   2.446       .  S
Cd489      O1087   2.420       .  S
Cd489       O494   2.472       .  S
Cd489       O490   2.485       .  S
Cd489      O1085   2.497       .  S
Cd489       O491   2.422       .  S
C492        O496   1.265       .  A
C492        C581   1.482       .  S
O493      Cd1081   2.497   1_455  S
O493       C1080   1.269       .  A
O495      Cd1081   2.420   1_455  S
O495       C1079   1.263   1_455  A
O496      Cd1081   2.446   1_455  S
C497       C1090   1.406       .  A
C497        C502   1.419       .  A
C498       C1089   1.406   1_455  A
C498        C499   1.394       .  A
C498        H507   1.083       .  S
C499       C1092   1.411   1_455  A
C499        S503   1.805       .  S
C500       C1091   1.411       .  A
C500        C501   1.404       .  A
C501        C502   1.407       .  A
C501        H508   1.082       .  S
C502        S504   1.800       .  S
S503        H506   1.407       .  S
S504        H505   1.407       .  S
C509        C510   1.399       .  A
C509       C1106   1.412       .  A
C510        C511   1.395       .  A
C510        H519   1.084       .  S
C511        C512   1.417       .  A
C511        S515   1.804       .  S
C512       C1105   1.407       .  A
C513       C1104   1.407       .  A
C513        C514   1.403       .  A
C513        H520   1.083       .  S
C514       C1101   1.412       .  A
C514        S516   1.803       .  S
S515        H518   1.408       .  S
S516        H517   1.406       .  S
C521        C522   1.407       .  A
C521        C526   1.414       .  A
C522        C523   1.406       .  A
C522        H531   1.083       .  S
C523        C524   1.416       .  A
C523        S527   1.802       .  S
C524        C525   1.402       .  A
C525        C526   1.397       .  A
C525        H532   1.084       .  S
C526        S528   1.803       .  S
S527        H530   1.407       .  S
S528        H529   1.407       .  S
C533        C534   1.406       .  A
C533        C538   1.417       .  A
C534        C535   1.403       .  A
C534        H543   1.083       .  S
C535        C536   1.416       .  A
C535        S539   1.803       .  S
C536        C537   1.404       .  A
C537        C538   1.402       .  A
C537        H544   1.083       .  S
C538        S540   1.802       .  S
S539        H542   1.407       .  S
S540        H541   1.407       .  S
C545        C550   1.417   1_545  A
C546        H555   1.083       .  S
C547        S551   1.802       .  S
C548        C549   1.401   1_546  A
C549        H556   1.084       .  S
C550        S552   1.803       .  S
S551        H554   1.407       .  S
S552        H553   1.408       .  S
C557        C562   1.411       .  A
C558        C559   1.404       .  A
C558        H567   1.083       .  S
C559        S563   1.800       .  S
C560        C561   1.408       .  A
C561        C562   1.397       .  A
C561        H568   1.083       .  S
C562        S564   1.805       .  S
S563        H566   1.408       .  S
S564        H565   1.407       .  S
C569        C570   1.404       .  A
C569        C574   1.412       .  A
C570        C571   1.403       .  A
C570        H579   1.085       .  S
C571        C572   1.415       .  A
C571        S575   1.802       .  S
C572        C573   1.405       .  A
C573        C574   1.399       .  A
C573        H580   1.085       .  S
C574        S576   1.804       .  S
S575        H578   1.407       .  S
S576        H577   1.407       .  S
C581        C582   1.403       .  A
C581        C586   1.416       .  A
C582        C583   1.398       .  A
C582        H591   1.084       .  S
C583        C584   1.414       .  A
C583        S587   1.803       .  S
C584        C585   1.405       .  A
C585        C586   1.403       .  A
C585        H592   1.084       .  S
C586        S588   1.803       .  S
S588        H589   1.406       .  S
O593       Cd598   2.488   1_545  S
O593        C892   1.267       .  A
C594        O603   1.266       .  A
C594        O599   1.267       .  A
C594        C732   1.481       .  S
O595       Cd894   2.486       .  S
O595        C601   1.268       .  A
C596        O889   1.267       .  A
C596        O604   1.263       .  A
C596        C693   1.486       .  S
C597        O898   1.267       .  A
C597        O600   1.264   1_565  A
C597        C705   1.478       .  S
Cd598       O891   2.486       .  S
Cd598       O901   2.452       .  S
Cd598       O900   2.428       .  S
Cd598       O603   2.449   1_565  S
Cd598       O599   2.477   1_565  S
Cd598       O898   2.498       .  S
Cd598       O600   2.437   1_565  S
C601        O605   1.265       .  A
C601        C720   1.483       .  S
O602       Cd894   2.498       .  S
O602        C893   1.267       .  A
O604       Cd894   2.428       .  S
O605       Cd894   2.452       .  S
O606       Cd611   2.493       .  S
O606        C905   1.268       .  A
C607        O616   1.264       .  A
C607        O612   1.268       .  A
C607        C669   1.485       .  S
O608       Cd907   2.484   1_545  S
O608        C614   1.268       .  A
C609        O902   1.268       .  A
C609        O617   1.264   1_565  A
C609        C708   1.491       .  S
C610        O911   1.268       .  A
C610        O613   1.264       .  A
C610        C696   1.479       .  S
Cd611       O904   2.484       .  S
Cd611       O914   2.476       .  S
Cd611       O913   2.445       .  S
Cd611       O616   2.450       .  S
Cd611       O612   2.506       .  S
Cd611       O911   2.501       .  S
Cd611       O613   2.425       .  S
C614        O618   1.265       .  A
C614        C684   1.487       .  S
O615       Cd907   2.501   1_545  S
O615        C906   1.268       .  A
O617       Cd907   2.445   1_545  S
O618       Cd907   2.476   1_545  S
O619       Cd772   2.515       .  S
O619        C622   1.265       .  A
C620        O629   1.267       .  A
C620        O625   1.269       .  A
C620        C672   1.483       .  S
O621        C627   1.264       .  A
C622        C645   1.490       .  S
C623        O626   1.263   1_455  A
C623        C657   1.471       .  S
Cd624       O767   2.516       .  S
Cd624       O629   2.444       .  S
Cd624       O625   2.492       .  S
Cd624       O626   2.438       .  S
C627        O631   1.265       .  A
C627        C717   1.478       .  S
O632       Cd637   2.504       .  S
O632        C635   1.268       .  A
C633        O642   1.266       .  A
C633        O638   1.268       .  A
C633        C681   1.490       .  S
O634        C640   1.268       .  A
C635        C648   1.477       .  S
C636        O639   1.263   1_455  A
C636        C660   1.485       .  S
Cd637       O642   2.472       .  S
Cd637       O638   2.486       .  S
Cd637       O639   2.422       .  S
C640        O644   1.265       .  A
C640        C729   1.482       .  S
C645        C650   1.419       .  A
C646        C647   1.394       .  A
C646        H655   1.083       .  S
C647        S651   1.805       .  S
C648        C649   1.404       .  A
C649        C650   1.407       .  A
C649        H656   1.083       .  S
C650        S652   1.800       .  S
S651        H654   1.407       .  S
S652        H653   1.407       .  S
C657        C658   1.399   1_455  A
C658        C659   1.395       .  A
C658        H667   1.084       .  S
C659        C660   1.417   1_655  A
C659        S663   1.804       .  S
C661        C662   1.403       .  A
C661        H668   1.083       .  S
C662        S664   1.803       .  S
S663        H666   1.408       .  S
S664        H665   1.406       .  S
C669        C670   1.407       .  A
C669        C674   1.415       .  A
C670        C671   1.406       .  A
C670        H679   1.083       .  S
C671        C672   1.416       .  A
C671        S675   1.803       .  S
C672        C673   1.402       .  A
C673        C674   1.397       .  A
C673        H680   1.084       .  S
C674        S676   1.803       .  S
S675        H678   1.407       .  S
S676        H677   1.407       .  S
C681        C682   1.406       .  A
C681        C686   1.417       .  A
C682        C683   1.403       .  A
C682        H691   1.083       .  S
C683        C684   1.416       .  A
C683        S687   1.803       .  S
C684        C685   1.404       .  A
C685        C686   1.402       .  A
C685        H692   1.083       .  S
C686        S688   1.802       .  S
S687        H690   1.407       .  S
S688        H689   1.407       .  S
C693        C990   1.408       .  A
C693        C698   1.417       .  A
C694        C989   1.408       .  A
C694        C843   1.403   1_554  A
C694        H703   1.083       .  S
C695        C842   1.403       .  A
C695        C992   1.414       .  A
C695        S699   1.802       .  S
C696        C991   1.414       .  A
C696        C697   1.401       .  A
C697        C846   1.395       .  A
C697        H704   1.084       .  S
C698        C845   1.395       .  A
C698        S700   1.803       .  S
S699        H702   1.407       .  S
S700        H701   1.408       .  S
C705       C1002   1.403       .  A
C705        C710   1.411   1_565  A
C706       C1001   1.403       .  A
C706        C707   1.404       .  A
C706        H715   1.083       .  S
C707       C1004   1.419       .  A
C707        S711   1.800       .  S
C708       C1003   1.419       .  A
C708        C709   1.408   1_565  A
C709        C710   1.397       .  A
C709        H716   1.083       .  S
C710        S712   1.805       .  S
S711        H714   1.408       .  S
S712        H713   1.407       .  S
C717        C718   1.404       .  A
C717        C722   1.412       .  A
C718        C719   1.403       .  A
C718        H727   1.085       .  S
C719        C720   1.415       .  A
C719        S723   1.802       .  S
C720        C721   1.405       .  A
C721        C722   1.399       .  A
C721        H728   1.085       .  S
C722        S724   1.804       .  S
S723        H726   1.407       .  S
S724        H725   1.407   1_554  S
C729        C730   1.403       .  A
C729        C734   1.416       .  A
C730        C731   1.398       .  A
C730        H739   1.084       .  S
C731        C732   1.414       .  A
C731        S735   1.803       .  S
C732        C733   1.405       .  A
C733        C734   1.403       .  A
C733        H740   1.084       .  S
C734        S736   1.802       .  S
S735       H1034   1.408       .  S
S736        H737   1.406       .  S
H738       S1031   1.408       .  S
O741       Cd746   2.487   1_545  S
O741       C1040   1.267       .  A
C742        O751   1.265       .  A
C742        O747   1.267       .  A
C742        C880   1.482       .  S
O743      Cd1042   2.486       .  S
O743        C749   1.268       .  A
C744       O1037   1.267       .  A
C744        O752   1.263       .  A
C744        C841   1.486       .  S
C745       O1046   1.267       .  A
C745        O748   1.264   1_565  A
C745        C853   1.478       .  S
Cd746      O1039   2.486       .  S
Cd746      O1049   2.451       .  S
Cd746      O1048   2.429       .  S
Cd746       O751   2.449   1_565  S
Cd746       O747   2.477   1_565  S
Cd746      O1046   2.499       .  S
Cd746       O748   2.436   1_565  S
C749        O753   1.265       .  A
C749        C868   1.483       .  S
O750      Cd1042   2.499       .  S
O750       C1041   1.267       .  A
O752      Cd1042   2.429       .  S
O753      Cd1042   2.451       .  S
O754       Cd759   2.492       .  S
O754       C1053   1.268       .  A
C755        O764   1.264       .  A
C755        O760   1.268       .  A
C755        C817   1.484       .  S
O756      Cd1055   2.484   1_545  S
O756        C762   1.268       .  A
C757       O1050   1.268       .  A
C757        O765   1.264   1_565  A
C757        C856   1.491       .  S
C758       O1059   1.268       .  A
C758        O761   1.264       .  A
C758        C844   1.478       .  S
Cd759      O1052   2.484       .  S
Cd759      O1062   2.475       .  S
Cd759      O1061   2.444       .  S
Cd759       O764   2.449       .  S
Cd759       O760   2.504       .  S
Cd759      O1059   2.501       .  S
Cd759       O761   2.425       .  S
C762        O766   1.265       .  A
C762        C832   1.487       .  S
O763      Cd1055   2.501   1_545  S
O763       C1054   1.268       .  A
O765      Cd1055   2.444   1_545  S
O766      Cd1055   2.475   1_545  S
O767        C770   1.265       .  A
C768        O777   1.267       .  A
C768        O773   1.268       .  A
C768        C820   1.483       .  S
O769        C775   1.264       .  A
C770        C793   1.490       .  S
C771        O774   1.263   1_455  A
C771        C805   1.471       .  S
Cd772       O777   2.442   1_554  S
Cd772       O773   2.493   1_554  S
Cd772       O774   2.439   1_554  S
C775        O779   1.265       .  A
C775        C865   1.478       .  S
O780       Cd785   2.505       .  S
O780        C783   1.268       .  A
C781        O790   1.266       .  A
C781        O786   1.268       .  A
C781        C829   1.490       .  S
O782        C788   1.268       .  A
C783        C796   1.478       .  S
C784        O787   1.263   1_455  A
C784        C808   1.485       .  S
Cd785       O790   2.472       .  S
Cd785       O786   2.485       .  S
Cd785       O787   2.422       .  S
C788        O792   1.265       .  A
C788        C877   1.482       .  S
C793        C798   1.419       .  A
C794        C795   1.394       .  A
C794        H803   1.083       .  S
C795        S799   1.805       .  S
C796        C797   1.404       .  A
C797        C798   1.407       .  A
C797        H804   1.083       .  S
C798        S800   1.800       .  S
S799        H802   1.407       .  S
S800        H801   1.407       .  S
C805        C806   1.399   1_455  A
C806        C807   1.395       .  A
C806        H815   1.084       .  S
C807        C808   1.417   1_655  A
C807        S811   1.804       .  S
C809        C810   1.403       .  A
C809        H816   1.083       .  S
C810        S812   1.803       .  S
S811        H814   1.408       .  S
S812        H813   1.406       .  S
C817        C818   1.407       .  A
C817        C822   1.414       .  A
C818        C819   1.406       .  A
C818        H827   1.083       .  S
C819        C820   1.416       .  A
C819        S823   1.802       .  S
C820        C821   1.402       .  A
C821        C822   1.397       .  A
C821        H828   1.084       .  S
C822        S824   1.803       .  S
S823        H826   1.407       .  S
S824        H825   1.407       .  S
C829        C830   1.406       .  A
C829        C834   1.417       .  A
C830        C831   1.403       .  A
C830        H839   1.083       .  S
C831        C832   1.416       .  A
C831        S835   1.803       .  S
C832        C833   1.404       .  A
C833        C834   1.402       .  A
C833        H840   1.083       .  S
C834        S836   1.802       .  S
S835        H838   1.407       .  S
S836        H837   1.407       .  S
C841       C1138   1.408       .  A
C841        C846   1.417       .  A
C842       C1137   1.408       .  A
C842        H851   1.083       .  S
C843       C1140   1.413       .  A
C843        S847   1.802       .  S
C844       C1139   1.413       .  A
C844        C845   1.401   1_556  A
C845        H852   1.084       .  S
C846        S848   1.803       .  S
S847        H850   1.407       .  S
S848        H849   1.408       .  S
C853       C1150   1.403       .  A
C853        C858   1.411   1_565  A
C854       C1149   1.403       .  A
C854        C855   1.404       .  A
C854        H863   1.083       .  S
C855       C1152   1.419       .  A
C855        S859   1.800       .  S
C856       C1151   1.419       .  A
C856        C857   1.408   1_565  A
C857        C858   1.397       .  A
C857        H864   1.083       .  S
C858        S860   1.805       .  S
S859        H862   1.408       .  S
S860        H861   1.407       .  S
C865        C866   1.404       .  A
C865        C870   1.412       .  A
C866        C867   1.403       .  A
C866        H875   1.085       .  S
C867        C868   1.415       .  A
C867        S871   1.802       .  S
C868        C869   1.405       .  A
C869        C870   1.399       .  A
C869        H876   1.085       .  S
C870        S872   1.804       .  S
S871        H874   1.407       .  S
S872        H873   1.407       .  S
C877        C878   1.403       .  A
C877        C882   1.416       .  A
C878        C879   1.398       .  A
C878        H887   1.084       .  S
C879        C880   1.414       .  A
C879        S883   1.803       .  S
C880        C881   1.405       .  A
C881        C882   1.403       .  A
C881        H888   1.084       .  S
C882        S884   1.803       .  S
S883       H1182   1.408       .  S
S884        H885   1.406       .  S
H886       S1179   1.408       .  S
O889       Cd894   2.488       .  S
C890        O899   1.266       .  A
C890        O895   1.267       .  A
C890       C1028   1.481       .  S
O891        C897   1.268       .  A
C892        O900   1.263   1_545  A
C892        C989   1.486       .  S
C893        O896   1.264       .  A
C893       C1001   1.478       .  S
Cd894       O899   2.449       .  S
Cd894       O895   2.477       .  S
Cd894       O896   2.437       .  S
C897        O901   1.265       .  A
C897       C1016   1.483       .  S
O902       Cd907   2.493       .  S
C903        O912   1.264       .  A
C903        O908   1.268       .  A
C903        C965   1.485       .  S
O904        C910   1.268       .  A
C905        O913   1.264       .  A
C905       C1004   1.491       .  S
C906        O909   1.264   1_545  A
C906        C992   1.479       .  S
Cd907       O912   2.450       .  S
Cd907       O908   2.506       .  S
Cd907       O909   2.425       .  S
C910        O914   1.265       .  A
C910        C980   1.487       .  S
O915      Cd1068   2.515       .  S
O915        C918   1.265       .  A
C916        O925   1.267       .  A
C916        O921   1.269       .  A
C916        C968   1.483       .  S
O917        C923   1.264       .  A
C918        C941   1.490       .  S
C919        O922   1.263   1_455  A
C919        C953   1.471       .  S
Cd920      O1063   2.516       .  S
Cd920       O925   2.443       .  S
Cd920       O921   2.492       .  S
Cd920       O922   2.438       .  S
C923        O927   1.265       .  A
C923       C1013   1.478       .  S
O928       Cd933   2.504       .  S
O928        C931   1.268       .  A
C929        O938   1.266       .  A
C929        O934   1.268       .  A
C929        C977   1.490       .  S
O930        C936   1.268       .  A
C931        C944   1.477       .  S
C932        O935   1.263   1_455  A
C932        C956   1.485       .  S
Cd933       O938   2.472       .  S
Cd933       O934   2.485       .  S
Cd933       O935   2.422       .  S
C936        O940   1.265       .  A
C936       C1025   1.482       .  S
C941        C946   1.419       .  A
C942        C943   1.394       .  A
C942        H951   1.083       .  S
C943        S947   1.805       .  S
C944        C945   1.404       .  A
C945        C946   1.407       .  A
C945        H952   1.083       .  S
C946        S948   1.800       .  S
S947        H950   1.407       .  S
S948        H949   1.407       .  S
C953        C954   1.399   1_455  A
C954        C955   1.395       .  A
C954        H963   1.084       .  S
C955        C956   1.417   1_655  A
C955        S959   1.804       .  S
C957        C958   1.403       .  A
C957        H964   1.083       .  S
C958        S960   1.803       .  S
S959        H962   1.408       .  S
S960        H961   1.406       .  S
C965        C966   1.407       .  A
C965        C970   1.415       .  A
C966        C967   1.406       .  A
C966        H975   1.083       .  S
C967        C968   1.416       .  A
C967        S971   1.803       .  S
C968        C969   1.402       .  A
C969        C970   1.397       .  A
C969        H976   1.084       .  S
C970        S972   1.803       .  S
S971        H974   1.407       .  S
S972        H973   1.407       .  S
C977        C978   1.406       .  A
C977        C982   1.417       .  A
C978        C979   1.403       .  A
C978        H987   1.083       .  S
C979        C980   1.416       .  A
C979        S983   1.803       .  S
C980        C981   1.404       .  A
C981        C982   1.402       .  A
C981        H988   1.083       .  S
C982        S984   1.802       .  S
S983        H986   1.407       .  S
S984        H985   1.407       .  S
C989        C994   1.417   1_545  A
C990       C1139   1.403   1_554  A
C990        H999   1.083       .  S
C991       C1138   1.403       .  A
C991        S995   1.802       .  S
C992        C993   1.401   1_545  A
C993       C1142   1.395       .  A
C993       H1000   1.084       .  S
C994       C1141   1.395       .  A
C994        S996   1.803       .  S
S995        H998   1.407       .  S
S996        H997   1.408       .  S
C1001      C1006   1.411       .  A
C1002      C1003   1.404       .  A
C1002      H1011   1.083       .  S
C1003      S1007   1.800       .  S
C1004      C1005   1.408       .  A
C1005      C1006   1.397       .  A
C1005      H1012   1.083       .  S
C1006      S1008   1.805       .  S
S1007      H1010   1.408       .  S
S1008      H1009   1.407       .  S
C1013      C1014   1.404       .  A
C1013      C1018   1.412       .  A
C1014      C1015   1.403       .  A
C1014      H1023   1.085       .  S
C1015      C1016   1.415       .  A
C1015      S1019   1.802       .  S
C1016      C1017   1.405       .  A
C1017      C1018   1.399       .  A
C1017      H1024   1.085       .  S
C1018      S1020   1.804       .  S
S1019      H1022   1.407       .  S
S1020      H1021   1.407   1_554  S
C1025      C1026   1.403       .  A
C1025      C1030   1.416       .  A
C1026      C1027   1.398       .  A
C1026      H1035   1.084       .  S
C1027      C1028   1.414       .  A
C1027      S1031   1.803       .  S
C1028      C1029   1.405       .  A
C1029      C1030   1.403       .  A
C1029      H1036   1.084       .  S
C1030      S1032   1.803       .  S
S1032      H1033   1.406       .  S
O1037     Cd1042   2.487       .  S
C1038      O1047   1.265       .  A
C1038      O1043   1.267       .  A
C1038      C1176   1.482       .  S
O1039      C1045   1.268       .  A
C1040      O1048   1.263   1_545  A
C1040      C1137   1.486       .  S
C1041      O1044   1.264       .  A
C1041      C1149   1.478       .  S
Cd1042     O1047   2.449       .  S
Cd1042     O1043   2.477       .  S
Cd1042     O1044   2.436       .  S
C1045      O1049   1.265       .  A
C1045      C1164   1.483       .  S
O1050     Cd1055   2.492       .  S
C1051      O1060   1.264       .  A
C1051      O1056   1.268       .  A
C1051      C1113   1.484       .  S
O1052      C1058   1.268       .  A
C1053      O1061   1.264       .  A
C1053      C1152   1.491       .  S
C1054      O1057   1.264   1_545  A
C1054      C1140   1.478       .  S
Cd1055     O1060   2.449       .  S
Cd1055     O1056   2.505       .  S
Cd1055     O1057   2.425       .  S
C1058      O1062   1.265       .  A
C1058      C1128   1.487       .  S
O1063      C1066   1.265       .  A
C1064      O1073   1.267       .  A
C1064      O1069   1.268       .  A
C1064      C1116   1.483       .  S
O1065      C1071   1.264       .  A
C1066      C1089   1.490       .  S
C1067      O1070   1.263   1_455  A
C1067      C1101   1.471       .  S
Cd1068     O1073   2.442   1_554  S
Cd1068     O1069   2.493   1_554  S
Cd1068     O1070   2.439   1_554  S
C1071      O1075   1.265       .  A
C1071      C1161   1.478       .  S
O1076     Cd1081   2.505       .  S
O1076      C1079   1.268       .  A
C1077      O1086   1.266       .  A
C1077      O1082   1.268       .  A
C1077      C1125   1.490       .  S
O1078      C1084   1.268       .  A
C1079      C1092   1.478       .  S
C1080      O1083   1.263   1_455  A
C1080      C1104   1.485       .  S
Cd1081     O1086   2.472       .  S
Cd1081     O1082   2.485       .  S
Cd1081     O1083   2.422       .  S
C1084      O1088   1.265       .  A
C1084      C1173   1.482       .  S
C1089      C1094   1.419       .  A
C1090      C1091   1.394       .  A
C1090      H1099   1.083       .  S
C1091      S1095   1.805       .  S
C1092      C1093   1.404       .  A
C1093      C1094   1.407       .  A
C1093      H1100   1.082       .  S
C1094      S1096   1.800       .  S
S1095      H1098   1.407       .  S
S1096      H1097   1.407       .  S
C1101      C1102   1.399   1_455  A
C1102      C1103   1.395       .  A
C1102      H1111   1.084       .  S
C1103      C1104   1.417   1_655  A
C1103      S1107   1.804       .  S
C1105      C1106   1.403       .  A
C1105      H1112   1.083       .  S
C1106      S1108   1.803       .  S
S1107      H1110   1.408       .  S
S1108      H1109   1.406       .  S
C1113      C1114   1.407       .  A
C1113      C1118   1.414       .  A
C1114      C1115   1.406       .  A
C1114      H1123   1.083       .  S
C1115      C1116   1.416       .  A
C1115      S1119   1.802       .  S
C1116      C1117   1.402       .  A
C1117      C1118   1.397       .  A
C1117      H1124   1.084       .  S
C1118      S1120   1.803       .  S
S1119      H1122   1.407       .  S
S1120      H1121   1.407       .  S
C1125      C1126   1.406       .  A
C1125      C1130   1.417       .  A
C1126      C1127   1.403       .  A
C1126      H1135   1.083       .  S
C1127      C1128   1.416       .  A
C1127      S1131   1.803       .  S
C1128      C1129   1.404       .  A
C1129      C1130   1.402       .  A
C1129      H1136   1.083       .  S
C1130      S1132   1.802       .  S
S1131      H1134   1.407       .  S
S1132      H1133   1.407       .  S
C1137      C1142   1.417   1_545  A
C1138      H1147   1.083       .  S
C1139      S1143   1.802       .  S
C1140      C1141   1.401   1_546  A
C1141      H1148   1.084       .  S
C1142      S1144   1.803       .  S
S1143      H1146   1.407       .  S
S1144      H1145   1.408       .  S
C1149      C1154   1.411       .  A
C1150      C1151   1.404       .  A
C1150      H1159   1.083       .  S
C1151      S1155   1.800       .  S
C1152      C1153   1.408       .  A
C1153      C1154   1.397       .  A
C1153      H1160   1.083       .  S
C1154      S1156   1.805       .  S
S1155      H1158   1.408       .  S
S1156      H1157   1.407       .  S
C1161      C1162   1.404       .  A
C1161      C1166   1.412       .  A
C1162      C1163   1.403       .  A
C1162      H1171   1.085       .  S
C1163      C1164   1.415       .  A
C1163      S1167   1.802       .  S
C1164      C1165   1.405       .  A
C1165      C1166   1.399       .  A
C1165      H1172   1.085       .  S
C1166      S1168   1.804       .  S
S1167      H1170   1.407       .  S
S1168      H1169   1.407       .  S
C1173      C1174   1.403       .  A
C1173      C1178   1.416       .  A
C1174      C1175   1.398       .  A
C1174      H1183   1.084       .  S
C1175      C1176   1.414       .  A
C1175      S1179   1.803       .  S
C1176      C1177   1.405       .  A
C1177      C1178   1.403       .  A
C1177      H1184   1.084       .  S
C1178      S1180   1.803       .  S
S1180      H1181   1.406       .  S
