geometry optimzed in LAMMPS
_audit_creation_date              2020-12-01 
_audit_creation_method            'lammps2cif' 
_symmetry_space_group_name_H-M    'P1' 
_symmetry_Int_Tables_number       1 
_symmetry_cell_setting            triclinic 
loop_ 
_symmetry_equiv_pos_as_xyz 
  x,y,z 
_cell_length_a                    24.08112227 
_cell_length_b                    24.10685094892677 
_cell_length_c                    48.806603168232954 
_cell_angle_alpha                 90.59925768039625 
_cell_angle_beta                  90.15675233119805 
_cell_angle_gamma                 90.81295992536191 
loop_ 
_atom_site_label 
_atom_site_type_symbol 
_atom_site_fract_x 
_atom_site_fract_y 
_atom_site_fract_z 
_atom_site_charge 
C1          C  0.20376274  0.24560731  0.10254451     0.30400
C2          C  0.26231881  0.31240264  0.13705315     0.30400
C3          C  0.17809715  0.30495607  0.10764864    -0.05800
C4          C  0.21294788  0.22279518  0.13181193    -0.06600
C5          C  0.26416539  0.26206667  0.09246507    -0.06500
C6          C  0.21004928  0.33891950  0.12487953    -0.05800
C7          C  0.24204590  0.25644707  0.14899553    -0.06600
C8          C  0.29445871  0.29586991  0.11030288    -0.06500
C9          C  0.18598827  0.39077330  0.12617486    -0.31800
N10         N  0.13675958  0.38961536  0.11259168     0.14700
C11         C  0.13245238  0.33785953  0.10036520    -0.31900
H12         H  0.09775797  0.32440863  0.08770587     0.16600
C13         C  0.24642699  0.22897816  0.17414832    -0.30800
N14         N  0.22037687  0.17883172  0.17288920     0.13400
C15         C  0.19953871  0.17478271  0.14677796    -0.30800
C16         C  0.34432925  0.30999001  0.09677562    -0.31100
N17         N  0.34621182  0.28497965  0.07144575     0.13900
H18         H  0.37631419  0.33796899  0.10456269     0.16500
C19         C  0.29619037  0.25792206  0.06843604    -0.31100
H20         H  0.28345406  0.23724643  0.04962722     0.16500
H21         H  0.17689402  0.13891555  0.13895277     0.16500
H22         H  0.20161905  0.42597332  0.13795451     0.16600
H23         H  0.26803123  0.24362190  0.19217176     0.16500
N24         N  0.07902523  0.53483698  0.12228192    -0.36200
N25         N  0.99313152  0.44737184  0.12324078    -0.56800
N26         N  0.90740590  0.53288041  0.13573137    -0.36200
N27         N  0.99220824  0.62065581  0.12891286    -0.56800
C28         C  0.10877084  0.49032875  0.11316409     0.27400
C29         C  0.10940057  0.58199565  0.11755334     0.27400
C30         C  0.87674956  0.48649642  0.12958926     0.27400
C31         C  0.87495720  0.57760248  0.13074329     0.27400
C32         C  0.03955271  0.41585381  0.12433164     0.36000
C33         C  0.95054338  0.41557668  0.13292628     0.36000
C34         C  0.03878382  0.65345796  0.13132621     0.36000
C35         C  0.94761121  0.65195871  0.13631727     0.36000
C36         C  0.15851173  0.50986806  0.10246808    -0.21500
C37         C  0.15896373  0.56707952  0.10528125    -0.21500
C38         C  0.82497291  0.50198282  0.12032019    -0.21500
C39         C  0.82373544  0.55904062  0.12103999    -0.21500
C40         C  0.02630000  0.36451207  0.13513301    -0.22600
C41         C  0.97026256  0.36427202  0.14052514    -0.22500
C42         C  0.02349787  0.70566794  0.14045389    -0.22600
C43         C  0.96647558  0.70468416  0.14369032    -0.22500
C44         C  0.09385480  0.43243471  0.11571399    -0.17900
C45         C  0.09477171  0.63815229  0.12450349    -0.17900
C46         C  0.88992149  0.63468980  0.13480880    -0.17900
C47         C  0.89340836  0.43039280  0.13280131    -0.17900
H48         H  0.19133105  0.48548842  0.09351695     0.15000
H49         H  0.19197519  0.59462650  0.09863495     0.15000
H50         H  0.79207310  0.47499400  0.11276161     0.15000
H51         H  0.78935341  0.58373950  0.11418279     0.15000
H52         H  0.05435340  0.33126299  0.13963603     0.13300
H53         H  0.94687484  0.33023423  0.14932909     0.13300
H54         H  0.05060525  0.74097824  0.14454853     0.13300
H55         H  0.94188618  0.73909680  0.15085598     0.13300
H56         H  0.04228091  0.53305660  0.13335108     0.26600
H57         H  0.94653888  0.53356040  0.14489431     0.26600
C58         C  0.77765524  0.80722937  0.11058722     0.30400
C59         C  0.70317902  0.74920360  0.14004084     0.30400
C60         C  0.79848289  0.75161467  0.12121012    -0.05800
C61         C  0.75846711  0.83700948  0.13797718    -0.06600
C62         C  0.72209499  0.79279455  0.09542229    -0.06500
C63         C  0.76167222  0.72076080  0.13654714    -0.05800
C64         C  0.72067392  0.80575809  0.15305595    -0.06600
C65         C  0.68539441  0.76221467  0.11026187    -0.06500
C66         C  0.79270498  0.67446720  0.14492190    -0.31800
N67         N  0.84568149  0.67667291  0.13417592     0.14700
C68         C  0.84874144  0.72452799  0.11992615    -0.31900
H69         H  0.88497450  0.73857044  0.10877133     0.16600
C70         C  0.71232180  0.83289238  0.17810657    -0.30800
N71         N  0.74096142  0.88199695  0.17865164     0.13400
C72         C  0.76935221  0.88444191  0.15441529    -0.30800
C73         C  0.63942807  0.75080663  0.09332937    -0.31100
N74         N  0.64631565  0.77488684  0.06827619     0.13900
H75         H  0.60293921  0.72706367  0.09916887     0.16500
C76         C  0.69706722  0.80105460  0.06959834    -0.31100
H77         H  0.71388393  0.82547802  0.05313501     0.16500
H78         H  0.79613673  0.91881151  0.14983789     0.16500
H79         H  0.77775766  0.64158030  0.15801553     0.16600
H80         H  0.68657916  0.81792551  0.19467642     0.16500
N81         N  0.23347809  0.94668525  0.24229223    -0.36200
N82         N  0.21992599  0.03359629  0.20072940    -0.56800
N83         N  0.22405833  0.11981805  0.24543282    -0.36200
N84         N  0.22550059  0.03202292  0.28692921    -0.56800
C85         C  0.21923853  0.91598158  0.21954777     0.27400
C86         C  0.22494821  0.91466365  0.26485870     0.27400
C87         C  0.21212260  0.15110018  0.22293957     0.27400
C88         C  0.21228560  0.14989979  0.26869327     0.27400
C89         C  0.23368137  0.98935959  0.18458028     0.36000
C90         C  0.23216574  0.08009076  0.18619841     0.36000
C91         C  0.24252839  0.98711706  0.30127175     0.36000
C92         C  0.23345344  0.07742270  0.30351102     0.36000
C93         C  0.20069802  0.86419259  0.22801186    -0.21500
C94         C  0.20460953  0.86325703  0.25632776    -0.21500
C95         C  0.19235140  0.20177159  0.23221460    -0.21500
C96         C  0.19250397  0.20096902  0.26069873    -0.21500
C97         C  0.25547149  0.00799127  0.16010097    -0.22600
C98         C  0.25473178  0.06497647  0.16113516    -0.22500
C99         C  0.26214025  0.00468382  0.32674137    -0.22600
C100        C  0.25578002  0.06125670  0.32824482    -0.22500
C101        C  0.22605381  0.93226663  0.19137608    -0.17900
C102        C  0.23644839  0.93005692  0.29285566    -0.17900
C103        C  0.22101753  0.13352417  0.29690019    -0.17900
C104        C  0.22091242  0.13600166  0.19439151    -0.17900
H105        H  0.18574587  0.83034040  0.21512888     0.15000
H106        H  0.19309008  0.82866412  0.26916805     0.15000
H107        H  0.17874208  0.23596244  0.21980793     0.15000
H108        H  0.17901284  0.23422170  0.27403915     0.15000
H109        H  0.27189662  0.98330826  0.14347186     0.13300
H110        H  0.27035833  0.09204187  0.14530130     0.13300
H111        H  0.27979484  0.97954347  0.34267916     0.13300
H112        H  0.26785652  0.08764923  0.34535511     0.13300
H113        H  0.25302441  0.98546843  0.24234504     0.26600
H114        H  0.24377568  0.08177157  0.24480982     0.26600
N115        N  0.74420216  0.02774991  0.20859183    -0.36200
N116        N  0.74214366  0.11494959  0.25200276    -0.56800
N117        N  0.74671175  0.02875697  0.29488746    -0.36200
N118        N  0.73627461  0.94147597  0.25133091    -0.56800
C119        C  0.73255055  0.07335515  0.19335542     0.27400
C120        C  0.73198836  0.98169117  0.19309704     0.27400
C121        C  0.73814095  0.07503315  0.31059093     0.27400
C122        C  0.73322672  0.98342280  0.31014911     0.27400
C123        C  0.75160344  0.14659537  0.22930722     0.36000
C124        C  0.75499550  0.14694091  0.27454596     0.36000
C125        C  0.74688950  0.90924602  0.22872326     0.36000
C126        C  0.74651150  0.91003667  0.27390516     0.36000
C127        C  0.71224040  0.05575613  0.16806329    -0.21500
C128        C  0.71202167  0.99843185  0.16788040    -0.21500
C129        C  0.71873180  0.05872874  0.33602072    -0.21500
C130        C  0.71540785  0.00148427  0.33570658    -0.21500
C131        C  0.77094861  0.19848364  0.23765423    -0.22600
C132        C  0.77314211  0.19868414  0.26590971    -0.22500
C133        C  0.76414475  0.85762564  0.23710437    -0.22600
C134        C  0.76428746  0.85841847  0.26533620    -0.22500
C135        C  0.74174622  0.13039026  0.20111764    -0.17900
C136        C  0.74026164  0.92494745  0.20054961    -0.17900
C137        C  0.73901643  0.92621932  0.30218971    -0.17900
C138        C  0.74829884  0.13154484  0.30289856    -0.17900
H139        H  0.69843134  0.08143547  0.15140187     0.15000
H140        H  0.69800179  0.97211959  0.15107502     0.15000
H141        H  0.70705504  0.08517807  0.35302963     0.15000
H142        H  0.70071831  0.97627281  0.35246955     0.15000
H143        H  0.78341802  0.23263565  0.22475133     0.13300
H144        H  0.78742106  0.23309802  0.27859834     0.13300
H145        H  0.77694409  0.82326665  0.22428271     0.13300
H146        H  0.77817054  0.82534375  0.27811099     0.13300
H147        H  0.76420378  0.02798730  0.22750376     0.26600
H148        H  0.76528941  0.02798972  0.27568300     0.26600
C149        C  0.21320837  0.82597032  0.38410274     0.30400
C150        C  0.27867877  0.75871079  0.35440828     0.30400
C151        C  0.18671389  0.76730443  0.37752345    -0.05800
C152        C  0.22954282  0.84674235  0.35535954    -0.06600
C153        C  0.26792079  0.80991708  0.39834216    -0.06500
C154        C  0.22003846  0.73311759  0.36149524    -0.05800
C155        C  0.26256165  0.81307658  0.33985524    -0.06600
C156        C  0.30097255  0.77601132  0.38298724    -0.06500
C157        C  0.18953090  0.68395519  0.35681264    -0.31800
N158        N  0.14032572  0.68536226  0.37069807     0.14700
C159        C  0.13902930  0.73588763  0.38376144    -0.31900
H160        H  0.10593672  0.74843144  0.39731696     0.16600
C161        C  0.26684084  0.83821296  0.31402945    -0.30800
N162        N  0.23848301  0.88714405  0.31413146     0.13400
C163        C  0.21428451  0.89110611  0.33922497    -0.30800
C164        C  0.34579952  0.76155357  0.39927346    -0.31100
N165        N  0.34167772  0.78648498  0.42436062     0.13900
H166        H  0.37904992  0.73427835  0.39325420     0.16500
C167        C  0.29310978  0.81521889  0.42415094    -0.31100
H168        H  0.27735755  0.83883289  0.44135725     0.16500
H169        H  0.18706863  0.92426381  0.34545147     0.16500
H170        H  0.20206547  0.64949912  0.34398320     0.16600
H171        H  0.28940317  0.82215949  0.29659104     0.16500
N172        N  0.08125413  0.53826538  0.36846639    -0.36200
N173        N  0.99414246  0.45004025  0.37030926    -0.56800
N174        N  0.90830821  0.53434056  0.37063766    -0.36200
N175        N  0.99494005  0.62304380  0.37409478    -0.56800
C176        C  0.11203989  0.49245121  0.37386687     0.27400
C177        C  0.11260863  0.58438947  0.37472869     0.27400
C178        C  0.87766787  0.48788469  0.37610728     0.27400
C179        C  0.87783630  0.57889628  0.37828109     0.27400
C180        C  0.03935481  0.41962266  0.36375841     0.36000
C181        C  0.94873276  0.41768694  0.36456143     0.36000
C182        C  0.03970495  0.65609270  0.36817964     0.36000
C183        C  0.94857782  0.65356871  0.36966278     0.36000
C184        C  0.16338364  0.50994319  0.38390705    -0.21500
C185        C  0.16381261  0.56742363  0.38434054    -0.21500
C186        C  0.82748768  0.50327546  0.38752345    -0.21500
C187        C  0.82757750  0.56044716  0.38886808    -0.21500
C188        C  0.02225551  0.36830269  0.35343294    -0.22600
C189        C  0.96515304  0.36700927  0.35408155    -0.22500
C190        C  0.02132283  0.70747089  0.35980056    -0.22600
C191        C  0.96409892  0.70581191  0.36072925    -0.22500
C192        C  0.09581805  0.43547858  0.36895950    -0.17900
C193        C  0.09694720  0.64130041  0.37112722    -0.17900
C194        C  0.89241503  0.63579341  0.37434785    -0.17900
C195        C  0.89271222  0.43208788  0.37000902    -0.17900
H196        H  0.19720389  0.48412100  0.39045003     0.15000
H197        H  0.19795395  0.59366200  0.39130083     0.15000
H198        H  0.79420056  0.47622080  0.39436403     0.15000
H199        H  0.79428183  0.58554990  0.39683716     0.15000
H200        H  0.04815662  0.33503365  0.34608354     0.13300
H201        H  0.93879323  0.33270299  0.34742338     0.13300
H202        H  0.04629572  0.74241730  0.35313255     0.13300
H203        H  0.93700727  0.73899295  0.35482395     0.13300
H204        H  0.04281894  0.53811875  0.35868932     0.26600
H205        H  0.94531325  0.53587823  0.35970650     0.26600
C206        C  0.71275269  0.31595402  0.35496529     0.30400
C207        C  0.77194825  0.25793204  0.39154128     0.30400
C208        C  0.76851635  0.34286070  0.36417199    -0.05800
C209        C  0.68082715  0.30480927  0.38292029    -0.06600
C210        C  0.72869924  0.25643344  0.34579209    -0.06500
C211        C  0.80001905  0.31234671  0.38191010    -0.05800
C212        C  0.71293222  0.27542271  0.40105005    -0.06600
C213        C  0.76050955  0.22669637  0.36366563    -0.06500
C214        C  0.85119224  0.33988927  0.38429441    -0.31800
N215        N  0.84973105  0.38850945  0.37026270     0.14700
C216        C  0.79932406  0.39008829  0.35759285    -0.31900
H217        H  0.78615400  0.42300535  0.34424264     0.16600
C218        C  0.68162755  0.26439716  0.42442291    -0.30800
N219        N  0.63032935  0.28632940  0.42252477     0.13400
C220        C  0.62908895  0.31048274  0.39698771    -0.30800
C221        C  0.77306798  0.17693407  0.34960547    -0.31100
N222        N  0.74769406  0.17553859  0.32429314     0.13900
H223        H  0.79922181  0.14436592  0.35724550     0.16500
C224        C  0.71983524  0.22397144  0.32238471    -0.31100
H225        H  0.69460387  0.23506686  0.30497460     0.16500
H226        H  0.59230937  0.32953005  0.38926531     0.16500
H227        H  0.88654510  0.32610798  0.39601078     0.16600
H228        H  0.69513398  0.24050811  0.44167608     0.16500
N229        N  0.48546256  0.77395664  0.45331893    -0.36200
N230        N  0.39862697  0.78121742  0.49680868    -0.56800
N231        N  0.50160570  0.77153367  0.03846829    -0.36200
N232        N  0.57193419  0.77335465  0.49547824    -0.56800
C233        C  0.44068395  0.79169953  0.43897832     0.27400
C234        C  0.53153774  0.78377868  0.43781937     0.27400
C235        C  0.45634785  0.78481624  0.05397921     0.27400
C236        C  0.54806295  0.78661767  0.05290471     0.27400
C237        C  0.36665642  0.77360359  0.47391939     0.36000
C238        C  0.38320430  0.76689473  0.01879880     0.36000
C239        C  0.60320025  0.76147347  0.47285709     0.36000
C240        C  0.62109521  0.76452086  0.01756295     0.36000
C241        C  0.45894529  0.81396964  0.41440877    -0.21500
C242        C  0.51589132  0.80858757  0.41360508    -0.21500
C243        C  0.47437369  0.80942166  0.07820950    -0.21500
C244        C  0.53171153  0.81088825  0.07746823    -0.21500
C245        C  0.31410902  0.75565665  0.48155129    -0.22600
C246        C  0.33111248  0.74947356  0.00975637    -0.22500
C247        C  0.65468111  0.74304857  0.48132401    -0.22600
C248        C  0.67277153  0.74586125  0.00947972    -0.22500
C249        C  0.38350541  0.78431994  0.44628770    -0.17900
C250        C  0.58726401  0.77012767  0.44470844    -0.17900
C251        C  0.60479434  0.77560941  0.04571394    -0.17900
C252        C  0.39922941  0.77448733  0.04702895    -0.17900
H253        H  0.43388070  0.83226431  0.39854911     0.15000
H254        H  0.54273530  0.82212257  0.39715855     0.15000
H255        H  0.44893955  0.82558528  0.09460916     0.15000
H256        H  0.55835243  0.82823836  0.09332831     0.15000
H257        H  0.27950406  0.74524410  0.46819204     0.13300
H258        H  0.29646192  0.73557919  0.02209008     0.13300
H259        H  0.68874849  0.73003323  0.46847946     0.13300
H260        H  0.70716844  0.73551037  0.02267243     0.13300
H261        H  0.48399059  0.75132667  0.47135630     0.26600
H262        H  0.50098313  0.74846325  0.02031103     0.26600
N263        N  0.57143723  0.26462461  0.49466595    -0.36200
N264        N  0.48414721  0.27993927  0.45291949    -0.56800
N265        N  0.39692465  0.26997228  0.49692307    -0.36200
N266        N  0.49574102  0.28781444  0.04461103    -0.56800
C267        C  0.60221622  0.28328707  0.47287570     0.27400
C268        C  0.61563010  0.29208069  0.02523382     0.27400
C269        C  0.36580784  0.28181189  0.47434289     0.27400
C270        C  0.37896962  0.29255360  0.02252641     0.27400
C271        C  0.52942367  0.27267589  0.43639923     0.36000
C272        C  0.43800776  0.26662235  0.43774457     0.36000
C273        C  0.54073939  0.27728138  0.06087226     0.36000
C274        C  0.44889724  0.27838959  0.05989113     0.36000
C275        C  0.65344565  0.30144674  0.48291082    -0.21500
C276        C  0.66746148  0.31153240  0.01712944    -0.21500
C277        C  0.31515647  0.30216738  0.48307180    -0.21500
C278        C  0.32935609  0.31338218  0.01284746    -0.21500
C279        C  0.51182769  0.25421405  0.41085689    -0.22600
C280        C  0.45472983  0.24970588  0.41179087    -0.22500
C281        C  0.52189708  0.26040714  0.08634538    -0.22600
C282        C  0.46454885  0.26126805  0.08575473    -0.22500
C283        C  0.58651636  0.28189641  0.44408533    -0.17900
C284        C  0.59862910  0.28452934  0.05369518    -0.17900
C285        C  0.39219659  0.28605139  0.05110843    -0.17900
C286        C  0.38089459  0.27302000  0.44608725    -0.17900
H287        H  0.68702955  0.32030390  0.47147913     0.15000
H288        H  0.70109065  0.32524413  0.03038727     0.15000
H289        H  0.28138987  0.31643637  0.47043182     0.15000
H290        H  0.29588033  0.33039753  0.02489308     0.15000
H291        H  0.53737982  0.24300994  0.39353100     0.13300
H292        H  0.42870782  0.23481846  0.39510490     0.13300
H293        H  0.54669574  0.24770148  0.10362484     0.13300
H294        H  0.43760267  0.24941629  0.10245727     0.13300
H295        H  0.53262863  0.24517942  0.49359105     0.26600
H296        H  0.43495324  0.25011323  0.49644988     0.26600
C297        C  0.77069941  0.80840237  0.39083737     0.30400
C298        C  0.71144349  0.74273130  0.35604412     0.30400
C299        C  0.79806478  0.75325771  0.38309908    -0.05800
C300        C  0.71209438  0.78946725  0.40193654    -0.06600
C301        C  0.75495936  0.83520552  0.36277908    -0.06500
C302        C  0.76791703  0.71997695  0.36542486    -0.05800
C303        C  0.68116823  0.75503338  0.38424343    -0.06600
C304        C  0.72364002  0.80193367  0.34561836    -0.06500
C305        C  0.79914584  0.67285669  0.36046812    -0.31800
N306        N  0.84794952  0.67669422  0.37467530     0.14700
C307        C  0.84699905  0.72557088  0.38901492    -0.31900
H308        H  0.87939263  0.73979466  0.40288687     0.16600
C309        C  0.63017930  0.74480547  0.39793327    -0.30800
N310        N  0.63018561  0.77055825  0.42309444     0.13400
C311        C  0.67852849  0.79944046  0.42488130    -0.30800
C312        C  0.71232961  0.83221024  0.32203197    -0.31100
N313        N  0.73775658  0.88311762  0.32360845     0.13900
H314        H  0.68784348  0.81758285  0.30472602     0.16500
C315        C  0.76328477  0.88524314  0.34872396    -0.31100
H316        H  0.78702022  0.92070222  0.35604563     0.16500
H317        H  0.68542420  0.82759880  0.44171202     0.16500
H318        H  0.78739697  0.63852599  0.34710371     0.16600
H319        H  0.59467985  0.72166285  0.39022206     0.16500
C320        C  0.77741928  0.25300983  0.11437175     0.30400
C321        C  0.71178570  0.31542927  0.14652793     0.30400
C322        C  0.80239332  0.30864690  0.12386642    -0.05800
C323        C  0.72068778  0.26860003  0.10068580    -0.06600
C324        C  0.75834993  0.22437566  0.14156177    -0.06500
C325        C  0.76996395  0.34018315  0.14077386    -0.05800
C326        C  0.68731753  0.30132295  0.11696537    -0.06600
C327        C  0.72495274  0.25609962  0.15824102    -0.06500
C328        C  0.80117940  0.38765822  0.14736226    -0.31800
N329        N  0.85071041  0.38649891  0.13371155     0.14700
C330        C  0.85139905  0.33781450  0.11933418    -0.31900
H331        H  0.88461298  0.32492270  0.10590765     0.16600
C332        C  0.63900410  0.31122603  0.10120678    -0.30800
N333        N  0.64128983  0.28505618  0.07609324     0.13400
C334        C  0.69047585  0.25744996  0.07630546    -0.30800
C335        C  0.71409785  0.22289595  0.18142083    -0.31100
N336        N  0.74042388  0.17359047  0.17973809     0.13900
H337        H  0.68888287  0.23169578  0.19878797     0.16500
C338        C  0.76627415  0.17360508  0.15499116    -0.31100
H339        H  0.78917125  0.13872728  0.14753744     0.16500
H340        H  0.70212671  0.22918486  0.06010622     0.16500
H341        H  0.78864129  0.42084862  0.16095486     0.16600
H342        H  0.60407393  0.33557760  0.10762982     0.16500
C343        C  0.26760123  0.31035155  0.35645930     0.30400
C344        C  0.19838760  0.25094084  0.38866639     0.30400
C345        C  0.21343288  0.33967805  0.36396786    -0.05800
C346        C  0.24731368  0.25286017  0.34395379    -0.06600
C347        C  0.29216255  0.29302606  0.38476891    -0.06500
C348        C  0.17757440  0.30936879  0.38000768    -0.05800
C349        C  0.20984252  0.22303344  0.35988655    -0.06600
C350        C  0.25682163  0.26298412  0.40084514    -0.06500
C351        C  0.13037055  0.34166312  0.38325320    -0.31800
N352        N  0.13726161  0.39136718  0.37042294     0.14700
C353        C  0.18833673  0.39017226  0.35839053    -0.31900
H354        H  0.20561277  0.42299866  0.34593013     0.16600
C355        C  0.19332124  0.17660428  0.34363878    -0.30800
N356        N  0.22186064  0.17587166  0.31923968     0.13400
C357        C  0.25608965  0.22107284  0.32008840    -0.30800
C358        C  0.28490433  0.25143002  0.42534987    -0.31100
N359        N  0.33714639  0.27402310  0.42476007     0.13900
H360        H  0.26828757  0.22788493  0.44228569     0.16500
C361        C  0.34129413  0.29928452  0.40006157    -0.31100
H362        H  0.37824898  0.32090128  0.39416013     0.16500
H363        H  0.28651827  0.22877829  0.30437959     0.16500
H364        H  0.09304924  0.32956125  0.39409498     0.16600
H365        H  0.16274653  0.14551699  0.34930049     0.16500
C366        C  0.27902804  0.75399694  0.13651545     0.30400
C367        C  0.21741772  0.81150650  0.10058358     0.30400
C368        C  0.22125001  0.72724139  0.12913050    -0.05800
C369        C  0.26089768  0.81293038  0.14682146    -0.06600
C370        C  0.30738049  0.76501556  0.10845115    -0.06500
C371        C  0.18993952  0.75657349  0.11081090    -0.05800
C372        C  0.22891617  0.84282309  0.12848134    -0.06600
C373        C  0.27555396  0.79425576  0.09057952    -0.06500
C374        C  0.13881982  0.72835354  0.10807181    -0.31800
N375        N  0.13860801  0.68157293  0.12359630     0.14700
C376        C  0.18853970  0.68144089  0.13698729    -0.31900
H377        H  0.20014307  0.65012222  0.15154846     0.16600
C378        C  0.20982186  0.88932604  0.14327778    -0.30800
N379        N  0.23054966  0.88942916  0.16954065     0.13400
C380        C  0.25976645  0.84197184  0.17181849    -0.30800
C381        C  0.30597203  0.80128622  0.06657758    -0.31100
N382        N  0.35614222  0.77620525  0.06868307     0.13900
H383        H  0.29232510  0.82394940  0.04882066     0.16500
C384        C  0.35737111  0.75404866  0.09456965    -0.31100
H385        H  0.39180084  0.73106121  0.10277503     0.16500
H386        H  0.27676747  0.82911717  0.19111526     0.16500
H387        H  0.10418697  0.74094023  0.09552591     0.16600
H388        H  0.18157161  0.92006783  0.13562683     0.16500
O389        O  0.06158817  0.02376695  0.06851703    -0.74900
O390        O  0.11831513  0.04021552  0.03318145    -0.53800
C391        C  0.10495104  0.04658298  0.05816809     0.78800
O392        O  0.85546921  0.89797432  0.99717932    -0.59500
O393        O  0.78749096  0.94992571  0.01180104    -0.52500
C394        C  0.81454664  0.90545446  0.01336258     0.70800
O395        O  0.04801587  0.88269604  0.01753812    -0.74100
O396        O  0.11011913  0.94528720  0.00052345    -0.54600
C397        C  0.09758950  0.90072393  0.01288186     0.76900
O398        O  0.87437540  0.02931955  0.07577686    -0.59200
O399        O  0.80264879  0.04563609  0.04880256    -0.52300
C400        C  0.83274826  0.05833055  0.06955244     0.73400
Zr401      Zr  0.96605067  0.04696424  0.05771354     2.54700
O402        O  0.98172206  0.02106879  0.10516022    -0.79800
O403        O  0.96748997  0.14139020  0.07651140    -0.93200
Zr404      Zr  0.95254841  0.91145473  0.01033160     2.64700
O405        O  0.93893905  0.85510897  0.05092291    -0.98100
O406        O  0.96163568  0.82194495  0.98721058    -0.80200
O407        O  0.00328739  0.98306675  0.02879865    -0.83600
O408        O  0.90641801  0.97844272  0.03670818    -2.18300
O409        O  0.84305441  0.15094447  0.50495119    -0.66900
O410        O  0.77603554  0.09450857  0.49110255    -0.51500
C411        C  0.80039443  0.14128144  0.48974453     0.71800
O412        O  0.03649073  0.01485222  0.41591632    -0.59900
O413        O  0.10032152  0.01480082  0.45027990    -0.51800
C414        C  0.08444006  0.00438143  0.42567965     0.73600
O415        O  0.85331845  0.04478421  0.41530428    -0.71200
O416        O  0.79256062  0.03293067  0.44818653    -0.49900
C417        C  0.81478532  0.01613870  0.42609385     0.75000
O418        O  0.03379425  0.17365875  0.47840382    -0.66600
O419        O  0.10018048  0.11264422  0.49044334    -0.53800
C420        C  0.08425091  0.15710441  0.47926522     0.73400
Zr421      Zr  0.94201844  0.14568025  0.49402680     2.77500
O422        O  0.92958431  0.22915532  0.46720433    -0.97300
O423        O  0.95709356  0.21403457  0.53049166    -0.78100
Zr424      Zr  0.94616001  0.03650222  0.43389365     2.70100
O425        O  0.96590784  0.13174891  0.42065465    -0.79400
O426        O  0.94975057  0.02430147  0.38390643    -0.98500
Zr427      Zr  0.04751862  0.02914543  0.49120493     2.21500
Zr428      Zr  0.83916160  0.02065631  0.49147240     2.11100
O429        O  0.88984231  0.08762950  0.46387614    -2.47200
O430        O  0.99792135  0.09241797  0.46378454    -0.79200
O431        O  0.89060804  0.08259328  0.52139458    -0.71400
O432        O  0.99776853  0.97016031  0.45988007    -2.32300
O433        O  0.99841543  0.08937073  0.52140298    -2.28500
O434        O  0.90046242  0.97527628  0.46330612    -0.73100
H435        H  0.88869370  0.95537675  0.04994707     0.78900
H436        H  0.02001171  0.94440669  0.44966302     0.79900
H437        H  0.86720970  0.11063882  0.45255696     0.82200
H438        H  0.02251574  0.11383268  0.53192558     0.79800
H439        H  0.92502418  0.81442341  0.97858933     0.42800
H440        H  0.91769797  0.04449217  0.37640318     0.41800
H441        H  0.93172743  0.14361038  0.41116331     0.41500
H442        H  0.95070022  0.25851568  0.47722554     0.39400
H443        H  0.91932852  0.22416809  0.53651907     0.42500
H444        H  0.93545869  0.15983347  0.06801061     0.37300
H445        H  0.98293970  0.98004027  0.10478409     0.43400
H446        H  0.95971032  0.82071807  0.04713961     0.39800
H447        H  0.95091080  0.22311451  0.45016108     0.44800
H448        H  0.99976284  0.16066262  0.06829741     0.43500
H449        H  0.96058085  0.87443250  0.06551005     0.43600
H450        H  0.98190087  0.04676390  0.37759036     0.44000
O451        O  0.49035297  0.38699893  0.30960233    -0.74900
O452        O  0.46692713  0.32052560  0.27970512    -0.53800
C453        C  0.46146287  0.34429891  0.30311115     0.78800
O454        O  0.33112279  0.56859437  0.22342969    -0.59500
O455        O  0.39804882  0.63443348  0.23201570    -0.52500
C456        C  0.35151238  0.61810913  0.22215021     0.70800
O457        O  0.36171789  0.37982136  0.25170217    -0.74100
O458        O  0.41041278  0.30743367  0.24065225    -0.54600
C459        C  0.36647304  0.33477302  0.23774939     0.76900
O460        O  0.44779812  0.56880840  0.31447656    -0.59200
O461        O  0.45061097  0.63410037  0.28129228    -0.52300
C462        C  0.43890268  0.61739557  0.30545988     0.73400
Zr463      Zr  0.46466628  0.47864971  0.29542435     2.54700
O464        O  0.37110407  0.45263183  0.30918401    -0.79800
O465        O  0.48853698  0.49839304  0.34305394    -0.93200
Zr466      Zr  0.35989938  0.47505870  0.23442303     2.64700
O467        O  0.27439948  0.48020064  0.26083179    -0.98100
O468        O  0.29847194  0.46310300  0.19515362    -0.80200
O469        O  0.41585749  0.42257442  0.26420913    -0.83600
O470        O  0.41000399  0.53168731  0.26546884    -2.18300
O471        O  0.62347121  0.56944067  0.26567325    -0.66900
O472        O  0.55491108  0.63334861  0.26229555    -0.51500
C473        C  0.60204175  0.61664289  0.27089643     0.71800
O474        O  0.47619785  0.39333697  0.16052724    -0.59900
O475        O  0.48053218  0.33083601  0.19276748    -0.51800
C476        C  0.50242858  0.35497535  0.17230434     0.73600
O477        O  0.50372750  0.57626140  0.16598205    -0.71200
O478        O  0.50591515  0.63696022  0.20217100    -0.49900
C479        C  0.51666926  0.62279925  0.17733697     0.75000
O480        O  0.62861840  0.39009429  0.23777362    -0.66600
O481        O  0.56748040  0.32406175  0.24892572    -0.53800
C482        C  0.61447677  0.34814975  0.25209395     0.73400
Zr483      Zr  0.59444317  0.48384445  0.24374088     2.77500
O484        O  0.66635086  0.50921679  0.21102614    -0.97300
O485        O  0.66871954  0.46804186  0.27662104    -0.78100
Zr486      Zr  0.48087337  0.48438058  0.18185203     2.70100
O487        O  0.50513475  0.49355137  0.13360363    -0.79400
O488        O  0.38898495  0.50012274  0.16288619    -0.98500
Zr489      Zr  0.48439182  0.37240040  0.23829458     2.21500
Zr490      Zr  0.47854304  0.58356352  0.24135126     2.11100
O491        O  0.54211961  0.53504552  0.21261518    -2.47200
O492        O  0.54264473  0.43149607  0.21079922    -0.79200
O493        O  0.52511605  0.52493775  0.26802553    -0.71400
O494        O  0.42405896  0.42430682  0.20784276    -2.32300
O495        O  0.53426348  0.43068919  0.27039191    -2.28500
O496        O  0.42112472  0.53395750  0.20986886    -0.73100
H497        H  0.38274635  0.55422223  0.27457696     0.78900
H498        H  0.40320857  0.40143121  0.19518821     0.79900
H499        H  0.56999166  0.55771572  0.20391087     0.82200
H500        H  0.55977290  0.41338519  0.28268215     0.79800
H501        H  0.26840258  0.49013967  0.19794829     0.42800
H502        H  0.39488380  0.52959482  0.14917627     0.41800
H503        H  0.47500806  0.47405208  0.12336695     0.41500
H504        H  0.69978426  0.48965089  0.21741195     0.39400
H505        H  0.70207808  0.48613280  0.26870690     0.42500
H506        H  0.51693700  0.47148074  0.34822358     0.37300
H507        H  0.34644931  0.48118141  0.30169699     0.43400
H508        H  0.24416726  0.47827725  0.24706696     0.39800
H509        H  0.65537601  0.48895398  0.19408124     0.44800
H510        H  0.45509271  0.48800818  0.35366374     0.43500
H511        H  0.27181555  0.44438854  0.27045686     0.43600
H512        H  0.38044890  0.46635654  0.15184244     0.44000
C513        C  0.18853127  0.83729414  0.07656123    -0.05700
C514        C  0.16595556  0.79991762  0.05665978    -0.16900
C515        C  0.14195976  0.81836135  0.03268536     0.11500
C516        C  0.14227072  0.87511795  0.02774613    -0.05700
C517        C  0.17449392  0.91096012  0.04425694    -0.16900
C518        C  0.19844947  0.89275908  0.06837387     0.11500
S519        S  0.11197842  0.76826543  0.00905545    -0.31900
S520        S  0.24220367  0.94250440  0.08626231    -0.31900
H521        H  0.28562816  0.90603581  0.09166778     0.29500
H522        H  0.11316492  0.80340243  0.98619280     0.29500
H523        H  0.16828868  0.75553809  0.05913031     0.20100
H524        H  0.17807989  0.95442582  0.03933005     0.20100
C525        C  0.31262039  0.71934584  0.15575817    -0.05700
C526        C  0.33473763  0.74298542  0.17975535    -0.16900
C527        C  0.33748491  0.71226045  0.20356311     0.11500
C528        C  0.32803857  0.65454587  0.20192255    -0.05700
C529        C  0.31731159  0.62946504  0.17625387    -0.16900
C530        C  0.31230270  0.66130144  0.15285295     0.11500
S531        S  0.35267406  0.74875876  0.23527168    -0.31900
S532        S  0.30730541  0.62794665  0.11951528    -0.31900
H533        H  0.30680052  0.57287677  0.12873070     0.29500
H534        H  0.32575665  0.70981238  0.25215169     0.29500
H535        H  0.34841383  0.78576220  0.18019899     0.20100
H536        H  0.31643395  0.58472653  0.17417756     0.20100
C537        C  0.30469455  0.34647290  0.33910835    -0.05700
C538        C  0.34924654  0.37308409  0.35238786    -0.16900
C539        C  0.40306280  0.36131868  0.34400372     0.11500
C540        C  0.41089483  0.33399809  0.31865441    -0.05700
C541        C  0.36429682  0.31604924  0.30362025    -0.16900
C542        C  0.31176373  0.33123045  0.31181709     0.11500
S543        S  0.45918951  0.37541709  0.36764917    -0.31900
S544        S  0.25532892  0.33086161  0.28734742    -0.31900
H545        H  0.21582237  0.35257564  0.30545802     0.29500
H546        H  0.49123934  0.33065041  0.35834796     0.29500
H547        H  0.34268336  0.39343373  0.37197915     0.20100
H548        H  0.36854599  0.29373993  0.28468202     0.20100
C549        C  0.16559621  0.22326720  0.41110329    -0.05700
C550        C  0.14329138  0.25924163  0.43135386    -0.16900
C551        C  0.11962721  0.23969299  0.45523172     0.11500
C552        C  0.12256167  0.18326745  0.46060004    -0.05700
C553        C  0.15176825  0.14807844  0.44295860    -0.16900
C554        C  0.17376086  0.16714989  0.41850763     0.11500
S555        S  0.08784423  0.28723238  0.47922387    -0.31900
S556        S  0.21482791  0.11769738  0.39977307    -0.31900
H557        H  0.26065410  0.15294625  0.39539072     0.29500
H558        H  0.08708246  0.33326343  0.46173480     0.29500
H559        H  0.14766197  0.30356600  0.42988990     0.20100
H560        H  0.15596516  0.10462902  0.44774779     0.20100
C561        C  0.81956648  0.22181363  0.09813087    -0.05700
C562        C  0.85468601  0.18687573  0.11263978    -0.16900
C563        C  0.85615919  0.13113101  0.10514133     0.11500
C564        C  0.82875700  0.11405266  0.08074204    -0.05700
C565        C  0.80565463  0.15419927  0.06367494    -0.16900
C566        C  0.80864379  0.20935246  0.07090287     0.11500
S567        S  0.88483936  0.08401781  0.12963006    -0.31900
S568        S  0.80499437  0.26196565  0.04498051    -0.31900
H569        H  0.81678270  0.30660068  0.06294112     0.29500
H570        H  0.84020450  0.04600069  0.12715399     0.29500
H571        H  0.86978750  0.19941573  0.13274594     0.20100
H572        H  0.78660801  0.14330089  0.04449879     0.20100
C573        C  0.67627569  0.35345966  0.16364854    -0.05700
C574        C  0.65182281  0.33060528  0.18670056    -0.16900
C575        C  0.59523184  0.31920805  0.18548945     0.11500
C576        C  0.56267874  0.35407159  0.16929611    -0.05700
C577        C  0.58925181  0.39450394  0.15311412    -0.16900
C578        C  0.64658452  0.39480359  0.15026115     0.11500
S579        S  0.56812213  0.25481663  0.19924839    -0.31900
S580        S  0.67774571  0.43874183  0.12493711    -0.31900
H581        H  0.71233231  0.46479863  0.14452432     0.29500
H582        H  0.60962574  0.24780398  0.21910817     0.29500
H583        H  0.67740829  0.31402398  0.20249983     0.20100
H584        H  0.56590461  0.42223795  0.14077171     0.20100
C585        C  0.68667322  0.70691313  0.33360420    -0.05700
C586        C  0.63995797  0.67487308  0.33945153    -0.16900
C587        C  0.61231407  0.64560576  0.31901306     0.11500
C588        C  0.62991721  0.64986692  0.29173517    -0.05700
C589        C  0.67990306  0.67643430  0.28587285    -0.16900
C590        C  0.71053973  0.70232983  0.30674708     0.11500
S591        S  0.56140655  0.59537374  0.32912271    -0.31900
S592        S  0.78121047  0.72036499  0.29712793    -0.31900
H593        H  0.79914080  0.75414892  0.31882681     0.29500
H594        H  0.54512384  0.62306794  0.35327792     0.29500
H595        H  0.62812076  0.66772464  0.36026939     0.20100
H596        H  0.69658789  0.67412417  0.26528233     0.20100
C597        C  0.80758140  0.84506945  0.40851203    -0.05700
C598        C  0.78485343  0.86590541  0.43245597    -0.16900
C599        C  0.77419059  0.92210545  0.43333466     0.11500
C600        C  0.81093848  0.95739014  0.41925632    -0.05700
C601        C  0.85054938  0.93391141  0.40165350    -0.16900
C602        C  0.84908819  0.87742265  0.39593883     0.11500
S603        S  0.70927690  0.94456373  0.44802771    -0.31900
S604        S  0.89229922  0.85134492  0.36892105    -0.31900
H605        H  0.92396032  0.82040520  0.38737605     0.29500
H606        H  0.70132317  0.98690343  0.42883893     0.29500
H607        H  0.76779144  0.83824040  0.44739921     0.20100
H608        H  0.87962687  0.95917972  0.39075352     0.20100
C609        C  0.79683432  0.22730158  0.41519200    -0.05700
C610        C  0.77465626  0.17317984  0.41774313    -0.16900
C611        C  0.76137604  0.15276588  0.44330380     0.11500
C612        C  0.78851825  0.17565946  0.46626290    -0.05700
C613        C  0.81365506  0.22748989  0.46447753    -0.16900
C614        C  0.81318858  0.25615224  0.43992524     0.11500
S615        S  0.70003475  0.10895459  0.44678560    -0.31900
S616        S  0.81990830  0.33072000  0.44354784    -0.31900
H617        H  0.85060930  0.33174784  0.46812644     0.29500
H618        H  0.67943345  0.11562412  0.42002738     0.29500
H619        H  0.75509667  0.15247447  0.40052646     0.20100
H620        H  0.82991100  0.24708525  0.48290010     0.20100
C621        C  0.64448397  0.33701135  0.27751840    -0.05700
C622        C  0.61183713  0.33230036  0.30119973    -0.16900
C623        C  0.63370955  0.34688922  0.32650960     0.11500
C624        C  0.69031489  0.34445255  0.33010276    -0.05700
C625        C  0.72487537  0.34685246  0.30656256    -0.16900
C626        C  0.70203014  0.34512025  0.28018501     0.11500
S627        S  0.59496029  0.39350951  0.34737746    -0.31900
S628        S  0.74627439  0.34767437  0.25042900    -0.31900
H629        H  0.79713439  0.34736642  0.26465977     0.29500
H630        H  0.64106568  0.41607826  0.36165888     0.29500
H631        H  0.56772713  0.32731129  0.29950103     0.20100
H632        H  0.76944927  0.34435142  0.30875383     0.20100
C633        C  0.18125197  0.87177747  0.39751875    -0.05700
C634        C  0.12395738  0.87120626  0.39313384    -0.16900
C635        C  0.09202103  0.91710083  0.39876099     0.11500
C636        C  0.11765531  0.96508255  0.41034979    -0.05700
C637        C  0.17512603  0.96761848  0.41335746    -0.16900
C638        C  0.20769617  0.92305307  0.40540478     0.11500
S639        S  0.01817678  0.91071970  0.39224785    -0.31900
S640        S  0.28177278  0.93613082  0.40222853    -0.31900
H641        H  0.28229280  0.99252591  0.40992542     0.29500
H642        H  0.02022149  0.86565938  0.37374261     0.29500
H643        H  0.10391559  0.83609742  0.38342739     0.20100
H644        H  0.19429968  0.00478073  0.42194899     0.20100
C645        C  0.32189126  0.72384199  0.34090178    -0.05700
C646        C  0.32060985  0.66739380  0.34720653    -0.16900
C647        C  0.36112880  0.63184363  0.33811053     0.11500
C648        C  0.40568201  0.65356083  0.32254621    -0.05700
C649        C  0.41124929  0.71069154  0.31910253    -0.16900
C650        C  0.37171503  0.74650417  0.32947875     0.11500
S651        S  0.35310301  0.55937414  0.34682596    -0.31900
S652        S  0.39168479  0.81912840  0.32893066    -0.31900
H653        H  0.37057162  0.83403005  0.35461592     0.29500
H654        H  0.29570602  0.55999023  0.35223493     0.29500
H655        H  0.28967217  0.65095138  0.36090192     0.20100
H656        H  0.44701379  0.72749262  0.30838224     0.20100
C657        C  0.65499795  0.71924163  0.15291904    -0.05700
C658        C  0.65417690  0.66185588  0.14894113    -0.16900
C659        C  0.60725471  0.63011340  0.15393008     0.11500
C660        C  0.55872218  0.65595824  0.16362338    -0.05700
C661        C  0.55766686  0.71337146  0.16656990    -0.16900
C662        C  0.60383893  0.74576171  0.15988901     0.11500
S663        S  0.61254975  0.55635400  0.14822547    -0.31900
S664        S  0.59042960  0.81939896  0.15905187    -0.31900
H665        H  0.61959180  0.83141249  0.13502889     0.29500
H666        H  0.67057803  0.55400828  0.15120553     0.29500
H667        H  0.68911557  0.64141004  0.13978386     0.20100
H668        H  0.52014580  0.73306255  0.17380497     0.20100
C669        C  0.81073986  0.87594080  0.03897039    -0.05700
C670        C  0.80287676  0.90819898  0.06278567    -0.16900
C671        C  0.81795713  0.88775976  0.08787683     0.11500
C672        C  0.81840218  0.83107632  0.09080301    -0.05700
C673        C  0.82853880  0.79765432  0.06724991    -0.16900
C674        C  0.82467101  0.81992574  0.04117751     0.11500
S675        S  0.86119569  0.93059040  0.10954598    -0.31900
S676        S  0.83004808  0.77383429  0.01201881    -0.31900
H677        H  0.79656033  0.77734715  0.48942997     0.29500
H678        H  0.88171992  0.88662648  0.12524853     0.29500
H679        H  0.79552589  0.95179248  0.06152524     0.20100
H680        H  0.82948040  0.75293008  0.06858086     0.20100
C681        C  0.29146654  0.34079181  0.16051781    -0.05700
C682        C  0.34507725  0.31948576  0.16444849    -0.16900
C683        C  0.36060575  0.30177977  0.19011340     0.11500
C684        C  0.33526914  0.32626376  0.21291223    -0.05700
C685        C  0.28560515  0.35367985  0.21001980    -0.16900
C686        C  0.26010899  0.35591647  0.18455111     0.11500
S687        S  0.40180857  0.23960618  0.19307731    -0.31900
S688        S  0.18559247  0.36559405  0.18562991    -0.31900
H689        H  0.17823440  0.36554597  0.21421801     0.29500
H690        H  0.41988809  0.23702875  0.16571018     0.29500
H691        H  0.36798486  0.30233791  0.14760758     0.20100
H692        H  0.26542399  0.37049500  0.22801293     0.20100
C693        C  0.13380726  0.09157234  0.07281691    -0.05700
C694        C  0.10167685  0.12703035  0.08887169    -0.16900
C695        C  0.11962366  0.18109145  0.09525621     0.11500
C696        C  0.17357551  0.19915304  0.08708211    -0.05700
C697        C  0.20718354  0.16002257  0.07348045    -0.16900
C698        C  0.18756646  0.10825044  0.06524308     0.11500
S699        S  0.07607716  0.22226827  0.11739723    -0.31900
S700        S  0.23362922  0.06297505  0.04649495    -0.31900
H701        H  0.27335510  0.10370394  0.03939637     0.31900
H702        H  0.03272586  0.18335782  0.12096839     0.29500
H703        H  0.06140234  0.11272623  0.09569428     0.20100
H704        H  0.25106184  0.16598377  0.07162187     0.20100
C705        C  0.19877729  0.23566735  0.60444014     0.30400
C706        C  0.25967009  0.30503304  0.63688523     0.30400
C707        C  0.17279135  0.29479947  0.60928647    -0.05800
C708        C  0.21090408  0.21450984  0.63366769    -0.06600
C709        C  0.25786135  0.25203897  0.59279229    -0.06500
C710        C  0.20521830  0.33032161  0.62553688    -0.05800
C711        C  0.24122186  0.24922913  0.64986123    -0.06600
C712        C  0.28950874  0.28713134  0.60948436    -0.06500
C713        C  0.17952695  0.38193203  0.62599019    -0.31800
N714        N  0.12967981  0.37895692  0.61268629     0.14700
C715        C  0.12630290  0.32613559  0.60162404    -0.31900
H716        H  0.09201000  0.31100831  0.58913347     0.16600
C717        C  0.24859073  0.22235910  0.67504851    -0.30800
N718        N  0.22276996  0.17186025  0.67477264     0.13400
C719        C  0.19938968  0.16694780  0.64923405    -0.30800
C720        C  0.33825850  0.30000548  0.59456382    -0.31100
N721        N  0.33774069  0.27346050  0.56951950     0.13900
H722        H  0.37115380  0.32810490  0.60122695     0.16500
C723        C  0.28761457  0.24616708  0.56812374    -0.31100
H724        H  0.27322148  0.22424229  0.54994820     0.16500
H725        H  0.17603878  0.13086342  0.64218711     0.16500
H726        H  0.19523636  0.41866737  0.63650357     0.16600
H727        H  0.27225369  0.23775514  0.69231674     0.16500
N728        N  0.06953429  0.52439965  0.61923191    -0.36200
N729        N  0.98418275  0.43784765  0.61409459    -0.56800
N730        N  0.89530460  0.52513265  0.62317764    -0.36200
N731        N  0.98052700  0.61182795  0.62225621    -0.56800
C732        C  0.10081174  0.48012858  0.61102315     0.27400
C733        C  0.09917740  0.57200991  0.61450827     0.27400
C734        C  0.86555394  0.47909446  0.61510370     0.27400
C735        C  0.86315093  0.57098214  0.61930797     0.27400
C736        C  0.02980159  0.40630718  0.61894047     0.36000
C737        C  0.93895717  0.40697284  0.62146916     0.36000
C738        C  0.02722074  0.64288575  0.62757302     0.36000
C739        C  0.93578930  0.64328675  0.62934511     0.36000
C740        C  0.15071448  0.50024075  0.60083144    -0.21500
C741        C  0.14957438  0.55760497  0.60291543    -0.21500
C742        C  0.81417133  0.49630413  0.60567204    -0.21500
C743        C  0.81256779  0.55354407  0.60846400    -0.21500
C744        C  0.01334066  0.35606529  0.62986500    -0.22600
C745        C  0.95631779  0.35646550  0.63153455    -0.22500
C746        C  0.01187282  0.69380044  0.63837980    -0.22600
C747        C  0.95459097  0.69401874  0.63953465    -0.22500
C748        C  0.08618821  0.42214995  0.61358042    -0.17900
C749        C  0.08347620  0.62802416  0.62137271    -0.17900
C750        C  0.87820497  0.62801232  0.62541454    -0.17900
C751        C  0.88207005  0.42189661  0.61770553    -0.17900
H752        H  0.18435452  0.47620653  0.59241852     0.15000
H753        H  0.18202355  0.58565829  0.59617967     0.15000
H754        H  0.78103180  0.47046036  0.59732461     0.15000
H755        H  0.77819504  0.57934431  0.60262214     0.15000
H756        H  0.03970488  0.32333937  0.63698979     0.13300
H757        H  0.93076389  0.32353126  0.63989665     0.13300
H758        H  0.03914957  0.72750787  0.64488062     0.13300
H759        H  0.92972459  0.72779393  0.64719996     0.13300
H760        H  0.03209341  0.52233672  0.62977924     0.26600
H761        H  0.93366920  0.52439750  0.63303246     0.26600
C762        C  0.76595588  0.80884326  0.60509054     0.30400
C763        C  0.69698939  0.74893236  0.63758150     0.30400
C764        C  0.78982149  0.75185112  0.61491848    -0.05800
C765        C  0.75150628  0.83770288  0.63342190    -0.06600
C766        C  0.70859947  0.79233896  0.59264818    -0.06500
C767        C  0.75435645  0.72042092  0.63117420    -0.05800
C768        C  0.71670054  0.80614224  0.65006263    -0.06600
C769        C  0.67425724  0.76250928  0.60887966    -0.06500
C770        C  0.78329827  0.67131222  0.63723914    -0.31800
N771        N  0.83516048  0.67201467  0.62543143     0.14700
C772        C  0.83941314  0.72209351  0.61261469    -0.31900
H773        H  0.87648387  0.73605640  0.60212521     0.16600
C774        C  0.71259677  0.83464344  0.67518721    -0.30800
N775        N  0.74044947  0.88446842  0.67437351     0.13400
C776        C  0.76592102  0.88551478  0.64915926    -0.30800
C777        C  0.62616912  0.75032114  0.59352627    -0.31100
N778        N  0.63029475  0.77291021  0.56804932     0.13900
H779        H  0.59060082  0.72655323  0.60054247     0.16500
C780        C  0.68098780  0.79849893  0.56746416    -0.31100
H781        H  0.69647272  0.82034840  0.54983613     0.16500
H782        H  0.79366694  0.91851902  0.64268302     0.16500
H783        H  0.76762551  0.63765822  0.64965002     0.16600
H784        H  0.69012276  0.81995620  0.69291060     0.16500
N785        N  0.23188358  0.94097256  0.74468020    -0.36200
N786        N  0.21884636  0.02689459  0.70322692    -0.56800
N787        N  0.23234114  0.11522352  0.74767598    -0.36200
N788        N  0.23233663  0.02863273  0.78928548    -0.56800
C789        C  0.21598389  0.90937375  0.72246907     0.27400
C790        C  0.22496283  0.91000221  0.76768283     0.27400
C791        C  0.21914222  0.14605490  0.72522422     0.27400
C792        C  0.22386880  0.14650971  0.77096984     0.27400
C793        C  0.22938523  0.98173380  0.68693377     0.36000
C794        C  0.23250101  0.07281993  0.68847022     0.36000
C795        C  0.24869169  0.98304082  0.80326002     0.36000
C796        C  0.24442135  0.07374803  0.80552501     0.36000
C797        C  0.19808549  0.85796523  0.73175142    -0.21500
C798        C  0.20401164  0.85826119  0.76000565    -0.21500
C799        C  0.20205582  0.19773020  0.73456773    -0.21500
C800        C  0.20516344  0.19798732  0.76302769    -0.21500
C801        C  0.25049451  0.99924251  0.66213559    -0.22600
C802        C  0.25270153  0.05629585  0.66311293    -0.22500
C803        C  0.27205953  0.99980729  0.82805158    -0.22600
C804        C  0.26868447  0.05667985  0.82963909    -0.22500
C805        C  0.22053767  0.92473773  0.69405513    -0.17900
C806        C  0.23937176  0.92617556  0.79525865    -0.17900
C807        C  0.23392217  0.13036463  0.79911029    -0.17900
C808        C  0.22443747  0.12961630  0.69659987    -0.17900
H809        H  0.18229050  0.82355428  0.71949014     0.15000
H810        H  0.19373204  0.82412883  0.77338083     0.15000
H811        H  0.18808151  0.23189787  0.72225341     0.15000
H812        H  0.19404919  0.23211801  0.77638574     0.15000
H813        H  0.26499165  0.97363294  0.64540430     0.13300
H814        H  0.26880642  0.08248953  0.64703686     0.13300
H815        H  0.29061899  0.97380245  0.84332686     0.13300
H816        H  0.28403370  0.08261325  0.84629868     0.13300
H817        H  0.25158130  0.97961493  0.74411897     0.26600
H818        H  0.25050942  0.07639784  0.74680844     0.26600
N819        N  0.73915292  0.03106719  0.70568353    -0.36200
N820        N  0.73592238  0.11964516  0.75059801    -0.56800
N821        N  0.74482430  0.03204633  0.79210226    -0.36200
N822        N  0.73523235  0.94420570  0.74708237    -0.56800
C823        C  0.72306649  0.07669930  0.69149453     0.27400
C824        C  0.72904079  0.98495983  0.68960138     0.27400
C825        C  0.73720367  0.07779142  0.80862348     0.27400
C826        C  0.73040062  0.98550766  0.80649949     0.27400
C827        C  0.74198674  0.15136466  0.72750480     0.36000
C828        C  0.75014326  0.15180229  0.77311440     0.36000
C829        C  0.74852392  0.91294784  0.72444397     0.36000
C830        C  0.74647851  0.91310846  0.76964348     0.36000
C831        C  0.70163891  0.05884705  0.66638911    -0.21500
C832        C  0.70571239  0.00168756  0.66516654    -0.21500
C833        C  0.71721539  0.05984320  0.83364203    -0.21500
C834        C  0.71228171  0.00255488  0.83220995    -0.21500
C835        C  0.76038443  0.20378376  0.73555455    -0.22600
C836        C  0.76574322  0.20403125  0.76388945    -0.22500
C837        C  0.76889846  0.86255876  0.73280069    -0.22600
C838        C  0.76798331  0.86296746  0.76104094    -0.22500
C839        C  0.73111470  0.13431141  0.69923824    -0.17900
C840        C  0.74074546  0.92821049  0.69627178    -0.17900
C841        C  0.73657861  0.92802204  0.79792971    -0.17900
C842        C  0.74754070  0.13534977  0.80186005    -0.17900
H843        H  0.68467460  0.08441537  0.65040445     0.15000
H844        H  0.69190701  0.97538497  0.64834481     0.15000
H845        H  0.70580905  0.08538206  0.85103658     0.15000
H846        H  0.69658100  0.97655025  0.84845253     0.15000
H847        H  0.77043065  0.23815985  0.72232450     0.13300
H848        H  0.78059467  0.23883985  0.77614157     0.13300
H849        H  0.78418888  0.82932221  0.71994026     0.13300
H850        H  0.78367771  0.83077008  0.77384391     0.13300
H851        H  0.76064642  0.03193975  0.72421431     0.26600
H852        H  0.76333611  0.03216617  0.77286335     0.26600
C853        C  0.22556911  0.82051041  0.88678533     0.30400
C854        C  0.29156537  0.75690186  0.85541531     0.30400
C855        C  0.20012942  0.76161840  0.87906396    -0.05800
C856        C  0.23915098  0.84347742  0.85799402    -0.06600
C857        C  0.28184583  0.80638081  0.89975446    -0.06500
C858        C  0.23442282  0.72937135  0.86261756    -0.05800
C859        C  0.27286755  0.81137229  0.84175204    -0.06600
C860        C  0.31475047  0.77379869  0.88376986    -0.06500
C861        C  0.20508277  0.68061155  0.85589970    -0.31800
N862        N  0.15443587  0.68079572  0.86831157     0.14700
C863        C  0.15092916  0.73024025  0.88199851    -0.31900
H864        H  0.11366720  0.74195029  0.89254524     0.16600
C865        C  0.27373652  0.83618303  0.81590344    -0.30800
N866        N  0.24334583  0.88368177  0.81655124     0.13400
C867        C  0.22064232  0.88697371  0.84205656    -0.30800
C868        C  0.36059168  0.75975070  0.89936827    -0.31100
N869        N  0.35768785  0.78449128  0.92452968     0.13900
H870        H  0.39358037  0.73260353  0.89287190     0.16500
C871        C  0.30886072  0.81286489  0.92500988    -0.31100
H872        H  0.29370511  0.83618118  0.94244786     0.16500
H873        H  0.19246879  0.91903293  0.84862660     0.16500
H874        H  0.21927462  0.64765132  0.84254625     0.16600
H875        H  0.29518589  0.82083482  0.79797318     0.16500
N876        N  0.09566750  0.53371496  0.86639564    -0.36200
N877        N  0.00826226  0.44768330  0.87192211    -0.56800
N878        N  0.92227310  0.53440444  0.87034178    -0.36200
N879        N  0.00881651  0.62110298  0.87028808    -0.56800
C880        C  0.12630087  0.48840192  0.87300890     0.27400
C881        C  0.12687767  0.58019729  0.87195364     0.27400
C882        C  0.89165568  0.48869721  0.87738649     0.27400
C883        C  0.89171038  0.58031245  0.87620348     0.27400
C884        C  0.05273483  0.41583623  0.86551987     0.36000
C885        C  0.96197752  0.41591133  0.86714942     0.36000
C886        C  0.05441005  0.65227786  0.86368487     0.36000
C887        C  0.96330218  0.65301674  0.86581958     0.36000
C888        C  0.17747481  0.50661512  0.88291505    -0.21500
C889        C  0.17786677  0.56398956  0.88222642    -0.21500
C890        C  0.84154041  0.50614872  0.88821170    -0.21500
C891        C  0.84144923  0.56340940  0.88729281    -0.21500
C892        C  0.03438783  0.36427304  0.85619484    -0.22600
C893        C  0.97730155  0.36429610  0.85725042    -0.22500
C894        C  0.03738022  0.70377627  0.85472559    -0.22600
C895        C  0.98022337  0.70434612  0.85623666    -0.22500
C896        C  0.10967597  0.43114569  0.86976846    -0.17900
C897        C  0.11131448  0.63679008  0.86741460    -0.17900
C898        C  0.90669834  0.63698145  0.87079030    -0.17900
C899        C  0.90617415  0.43167827  0.87283807    -0.17900
H900        H  0.21096367  0.48141931  0.89040488     0.15000
H901        H  0.21176515  0.59064352  0.88907871     0.15000
H902        H  0.80821765  0.48044668  0.89612772     0.15000
H903        H  0.80812725  0.58962044  0.89428045     0.15000
H904        H  0.05942342  0.33012159  0.84909742     0.13300
H905        H  0.95028508  0.33017592  0.85105916     0.13300
H906        H  0.06334723  0.73762520  0.84760544     0.13300
H907        H  0.95418701  0.73853775  0.85048312     0.13300
H908        H  0.05723054  0.53298839  0.85659090     0.26600
H909        H  0.95946584  0.53395943  0.85956845     0.26600
C910        C  0.72368582  0.31823226  0.85950434     0.30400
C911        C  0.78393957  0.25631409  0.89368858     0.30400
C912        C  0.78048153  0.34338506  0.86819960    -0.05800
C913        C  0.69359031  0.30602772  0.88782120    -0.06600
C914        C  0.73745223  0.25890577  0.84846625    -0.06500
C915        C  0.81287566  0.31067838  0.88419672    -0.05800
C916        C  0.72603502  0.27469301  0.90487723    -0.06600
C917        C  0.76891399  0.22627011  0.86532753    -0.06500
C918        C  0.86458578  0.33789775  0.88627944    -0.31800
N919        N  0.86245035  0.38846190  0.87385403     0.14700
C920        C  0.81085518  0.39155445  0.86261022    -0.31900
H921        H  0.79656736  0.42611582  0.85062953     0.16600
C922        C  0.69642271  0.26489856  0.92920352    -0.30800
N923        N  0.64572622  0.28883771  0.92844713     0.13400
C924        C  0.64346676  0.31347803  0.90304874    -0.30800
C925        C  0.77716160  0.17650489  0.84977075    -0.31100
N926        N  0.75087596  0.17832313  0.82445480     0.13900
H927        H  0.80144271  0.14172822  0.85646814     0.16500
C928        C  0.72621135  0.22893694  0.82421114    -0.31100
H929        H  0.70085609  0.24323323  0.80749716     0.16500
H930        H  0.60693955  0.33431886  0.89628269     0.16500
H931        H  0.90053742  0.32259986  0.89703523     0.16600
H932        H  0.71058826  0.24070328  0.94626592     0.16500
N933        N  0.50222519  0.76865141  0.95267101    -0.36200
N934        N  0.41543540  0.77938633  0.99664283    -0.56800
N935        N  0.48482337  0.77028950  0.53885356    -0.36200
N936        N  0.58931092  0.77175464  0.99452558    -0.56800
C937        C  0.45739434  0.78642562  0.93831674     0.27400
C938        C  0.54802485  0.77574124  0.93657122     0.27400
C939        C  0.43975389  0.78377788  0.55435778     0.27400
C940        C  0.53130439  0.78347852  0.55367890     0.27400
C941        C  0.38354995  0.77093391  0.97381173     0.36000
C942        C  0.36630386  0.76860751  0.51890577     0.36000
C943        C  0.62059300  0.75792696  0.97201386     0.36000
C944        C  0.60353400  0.76290443  0.51809812     0.36000
C945        C  0.47549101  0.80602460  0.91315491    -0.21500
C946        C  0.53209020  0.79868556  0.91194983    -0.21500
C947        C  0.45797193  0.80651992  0.57900489    -0.21500
C948        C  0.51527575  0.80661742  0.57853274    -0.21500
C949        C  0.33121975  0.75244171  0.98153333    -0.22600
C950        C  0.31395872  0.75217491  0.50977225    -0.22500
C951        C  0.67247024  0.74170126  0.98108234    -0.22600
C952        C  0.65490173  0.74394708  0.50964899    -0.22500
C953        C  0.40014095  0.78127726  0.94611842    -0.17900
C954        C  0.60396826  0.76237592  0.94339607    -0.17900
C955        C  0.58770807  0.77253798  0.54621327    -0.17900
C956        C  0.38260580  0.77482619  0.54718137    -0.17900
H957        H  0.45063589  0.82399056  0.89712491     0.15000
H958        H  0.55856442  0.81031368  0.89502111     0.15000
H959        H  0.43269440  0.82237158  0.59553567     0.15000
H960        H  0.54200437  0.82253849  0.59472127     0.15000
H961        H  0.29677800  0.74119294  0.96822360     0.13300
H962        H  0.27912814  0.73847550  0.52203192     0.13300
H963        H  0.70675065  0.72793159  0.96857863     0.13300
H964        H  0.68911553  0.73144072  0.52247890     0.13300
H965        H  0.50084278  0.74806467  0.97130097     0.26600
H966        H  0.48388810  0.74837887  0.52035462     0.26600
N967        N  0.58518815  0.28090290  0.00185446    -0.36200
N968        N  0.49892307  0.28108198  0.95789015    -0.56800
N969        N  0.41029347  0.27644827  0.00056619    -0.36200
N970        N  0.48434630  0.26727615  0.53896383    -0.56800
C971        C  0.61710079  0.29287315  0.97919809     0.27400
C972        C  0.60300329  0.26999358  0.51795811     0.27400
C973        C  0.38034816  0.28574424  0.97724633     0.27400
C974        C  0.36631813  0.28204374  0.51980372     0.27400
C975        C  0.54547025  0.27272037  0.94240671     0.36000
C976        C  0.45386789  0.26526686  0.94235526     0.36000
C977        C  0.52968303  0.25147200  0.55377600     0.36000
C978        C  0.43847436  0.26139336  0.55536069     0.36000
C979        C  0.66835828  0.31219288  0.98863827    -0.21500
C980        C  0.65413714  0.29246746  0.51086665    -0.21500
C981        C  0.33015001  0.30902557  0.98458741    -0.21500
C982        C  0.31552569  0.30237833  0.51141251    -0.21500
C983        C  0.52965590  0.25067374  0.91719809    -0.22600
C984        C  0.47245223  0.24548620  0.91726205    -0.22500
C985        C  0.51195246  0.23511746  0.57954105    -0.22600
C986        C  0.45506884  0.24174782  0.58059570    -0.22500
C987        C  0.60209036  0.28543442  0.95028831    -0.17900
C988        C  0.58736987  0.25594739  0.54560128    -0.17900
C989        C  0.38170215  0.27323473  0.54803175    -0.17900
C990        C  0.39616327  0.27239002  0.94955657    -0.17900
H991        H  0.70302256  0.32625345  0.97636027     0.15000
H992        H  0.68804517  0.30325898  0.52456848     0.15000
H993        H  0.29747992  0.32238897  0.97102073     0.15000
H994        H  0.28205348  0.31655202  0.52433342     0.15000
H995        H  0.55653620  0.23840653  0.90054722     0.13300
H996        H  0.44752075  0.22884437  0.90055538     0.13300
H997        H  0.53739982  0.22009793  0.59611125     0.13300
H998        H  0.42892030  0.23213049  0.59794483     0.13300
H999        H  0.54598635  0.26228314  0.00147757     0.26600
H1000       H  0.44768746  0.25537833  0.00150992     0.26600
C1001       C  0.78025256  0.80947610  0.88518918     0.30400
C1002       C  0.72298972  0.74013575  0.85154884     0.30400
C1003       C  0.81126296  0.75619902  0.87680307    -0.05800
C1004       C  0.72429405  0.78582031  0.89750584    -0.06600
C1005       C  0.75958309  0.83554991  0.85758379    -0.06500
C1006       C  0.78166928  0.72096335  0.85988124    -0.05800
C1007       C  0.69394482  0.75002705  0.88043270    -0.06600
C1008       C  0.73017354  0.80026161  0.84069118    -0.06500
C1009       C  0.81363085  0.67379078  0.85576161    -0.31800
N1010       N  0.86259031  0.67893198  0.86980725     0.14700
C1011       C  0.86108188  0.72943503  0.88298853    -0.31900
H1012       H  0.89324034  0.74524842  0.89662172     0.16600
C1013       C  0.64503192  0.73643324  0.89555440    -0.30800
N1014       N  0.64622302  0.76123853  0.92112999     0.13400
C1015       C  0.69359449  0.79173140  0.92172485    -0.30800
C1016       C  0.71582064  0.83043971  0.81716579    -0.31100
N1017       N  0.73647997  0.88366532  0.81897935     0.13900
H1018       H  0.69274733  0.81409109  0.79975353     0.16500
C1019       C  0.76166954  0.88688972  0.84398627    -0.31100
H1020       H  0.78115789  0.92461497  0.85130032     0.16500
H1021       H  0.70261856  0.81756333  0.93892339     0.16500
H1022       H  0.80158765  0.63789447  0.84351199     0.16600
H1023       H  0.61013290  0.71172199  0.88829862     0.16500
C1024       C  0.77051230  0.23505948  0.60609319     0.30400
C1025       C  0.70367244  0.30562039  0.63285974     0.30400
C1026       C  0.79469261  0.29433626  0.61106880    -0.05800
C1027       C  0.71213983  0.24489434  0.59165748    -0.06600
C1028       C  0.75264765  0.21566977  0.63554143    -0.06500
C1029       C  0.76030045  0.32950405  0.62487103    -0.05800
C1030       C  0.67896729  0.28164194  0.60551411    -0.06600
C1031       C  0.71770040  0.25118420  0.64931432    -0.06500
C1032       C  0.78822871  0.37969063  0.62885037    -0.31800
N1033       N  0.83942065  0.37732552  0.61715363     0.14700
C1034       C  0.84351000  0.32477726  0.60618564    -0.31900
H1035       H  0.87953150  0.30932680  0.59549928     0.16600
C1036       C  0.62985808  0.28635829  0.59029199    -0.30800
N1037       N  0.63091742  0.25509550  0.56721216     0.13400
C1038       C  0.68050264  0.22799969  0.56815399    -0.30800
C1039       C  0.70452847  0.22468301  0.67443152    -0.31100
N1040       N  0.73227704  0.17575471  0.67678263     0.13900
H1041       H  0.67538468  0.23890206  0.68960564     0.16500
C1042       C  0.76034766  0.16986794  0.65276400    -0.31100
H1043       H  0.78341046  0.13302984  0.64821439     0.16500
H1044       H  0.69221737  0.19798142  0.55275903     0.16500
H1045       H  0.77252809  0.41499771  0.64013360     0.16600
H1046       H  0.59460879  0.31075180  0.59498391     0.16500
C1047       C  0.28244995  0.30665640  0.85929911     0.30400
C1048       C  0.21374192  0.24734996  0.89133344     0.30400
C1049       C  0.22830456  0.33587913  0.86682691    -0.05800
C1050       C  0.26234475  0.24946827  0.84647587    -0.06600
C1051       C  0.30765900  0.28871540  0.88750032    -0.06500
C1052       C  0.19246475  0.30568498  0.88274335    -0.05800
C1053       C  0.22528392  0.21946036  0.86248475    -0.06600
C1054       C  0.27226513  0.25924127  0.90371388    -0.06500
C1055       C  0.14452675  0.33750617  0.88522417    -0.31800
N1056       N  0.15111259  0.38688382  0.87194364     0.14700
C1057       C  0.20272926  0.38576071  0.86049517    -0.31900
H1058       H  0.22004172  0.41812265  0.84775472     0.16600
C1059       C  0.20861545  0.17308928  0.84622027    -0.30800
N1060       N  0.23636671  0.17265083  0.82157651     0.13400
C1061       C  0.27038732  0.21821446  0.82230085    -0.30800
C1062       C  0.30032385  0.24877074  0.92848766    -0.31100
N1063       N  0.35300154  0.27067570  0.92771719     0.13900
H1064       H  0.28315026  0.22693935  0.94584829     0.16500
C1065       C  0.35732685  0.29423224  0.90258639    -0.31100
H1066       H  0.39456025  0.31449937  0.89622655     0.16500
H1067       H  0.30001044  0.22685205  0.80631191     0.16500
H1068       H  0.10701794  0.32520560  0.89584389     0.16600
H1069       H  0.17836248  0.14182892  0.85207786     0.16500
C1070       C  0.26480989  0.74594621  0.63645148     0.30400
C1071       C  0.20159971  0.80709474  0.60211253     0.30400
C1072       C  0.20756850  0.71937151  0.62842336    -0.05800
C1073       C  0.24597085  0.80370126  0.64835857    -0.06600
C1074       C  0.29243448  0.76115982  0.60871212    -0.06500
C1075       C  0.17558824  0.75020134  0.61087919    -0.05800
C1076       C  0.21329771  0.83528914  0.63092759    -0.06600
C1077       C  0.25994976  0.79186810  0.59161836    -0.06500
C1078       C  0.12547114  0.72065832  0.60716836    -0.31800
N1079       N  0.12654511  0.67213813  0.62134307     0.14700
C1080       C  0.17598120  0.67210190  0.63505336    -0.31900
H1081       H  0.18779429  0.63996379  0.64912001     0.16600
C1082       C  0.19761518  0.88221917  0.64649415    -0.30800
N1083       N  0.22102171  0.88123740  0.67221527     0.13400
C1084       C  0.24879357  0.83251901  0.67349506    -0.30800
C1085       C  0.28976241  0.80082711  0.56760036    -0.31100
N1086       N  0.33994057  0.77549776  0.56896344     0.13900
H1087       H  0.27556219  0.82456361  0.55030396     0.16500
C1088       C  0.34193824  0.75138367  0.59435464    -0.31100
H1089       H  0.37632001  0.72725702  0.60176486     0.16500
H1090       H  0.26874539  0.81898768  0.69200477     0.16500
H1091       H  0.09045547  0.73364888  0.59499671     0.16600
H1092       H  0.17023310  0.91447129  0.63967028     0.16500
O1093       O  0.04185087  0.02776903  0.56708667    -0.74900
O1094       O  0.10008419  0.04557483  0.53164231    -0.53800
C1095       C  0.08737697  0.04697589  0.55699674     0.78800
O1096       O  0.85512559  0.87165221  0.48519603    -0.59500
O1097       O  0.78942505  0.93401059  0.49154521    -0.52500
C1098       C  0.81248232  0.88889935  0.49810545     0.70800
O1099       O  0.03660327  0.88489488  0.50899856    -0.74100
O1100       O  0.10273198  0.95039150  0.50071872    -0.54600
C1101       C  0.08636369  0.90450117  0.51096499     0.76900
O1102       O  0.85352493  0.00523344  0.56341858    -0.59200
O1103       O  0.78848980  0.02999178  0.53400122    -0.52300
C1104       C  0.81309728  0.03609511  0.55711635     0.73400
Zr1105     Zr  0.94761547  0.02673612  0.54908964     2.54700
O1106       O  0.95435533  0.97461047  0.59140166    -0.79800
O1107       O  0.94185005  0.11275573  0.57554175    -0.93200
Zr1108     Zr  0.94786205  0.91213205  0.48924813     2.64700
O1109       O  0.93819941  0.82933434  0.51701675    -0.98100
O1110       O  0.97106044  0.84935128  0.45166086    -0.80200
O1111       O  0.99212882  0.97494949  0.51701169    -0.83600
O1112       O  0.89522565  0.96424442  0.52056632    -2.18300
O1113       O  0.85965115  0.15555040  0.00822491    -0.66900
O1114       O  0.78693045  0.10373064  0.99849852    -0.51500
C1115       C  0.81519448  0.14720392  0.99416145     0.71800
O1116       O  0.03100071  0.98294792  0.92367537    -0.59900
O1117       O  0.10015554  0.00448199  0.95404260    -0.51800
C1118       C  0.08145022  0.98175032  0.93204199     0.73600
O1119       O  0.85162251  0.03402700  0.93250889    -0.71200
O1120       O  0.79288978  0.00685654  0.96478645    -0.49900
C1121       C  0.81114483  0.00409600  0.94025320     0.75000
O1122       O  0.04825417  0.16921233  0.97930778    -0.66600
O1123       O  0.11176815  0.10359035  0.98921251    -0.53800
C1124       C  0.09743416  0.14963238  0.97922712     0.73400
Zr1125     Zr  0.95556383  0.14322415  0.99300658     2.77500
O1126       O  0.93886871  0.19956433  0.95284492    -0.97300
O1127       O  0.96620317  0.23264264  0.01620513    -0.78100
Zr1128     Zr  0.94416630  0.00744318  0.94491119     2.70100
O1129       O  0.94809443  0.03569027  0.89718579    -0.79400
O1130       O  0.91679791  0.91360048  0.93259948    -0.98500
Zr1131     Zr  0.05553630  0.02510863  0.99660378     2.21500
Zr1132     Zr  0.84638598  0.02809336  0.00542968     2.11100
O1133       O  0.89849226  0.07754507  0.97076539    -2.47200
O1134       O  0.00231962  0.07623612  0.96531022    -0.79200
O1135       O  0.90642805  0.09566318  0.02780388    -0.71400
O1136       O  0.00067535  0.95654829  0.97524458    -2.32300
O1137       O  0.01503101  0.09673707  0.02354284    -2.28500
O1138       O  0.89422014  0.95910605  0.97928310    -0.73100
H1139       H  0.87614151  0.93815130  0.53201150     0.78900
H1140       H  0.02319548  0.92890237  0.96672920     0.79900
H1141       H  0.87735336  0.10163863  0.95935354     0.82200
H1142       H  0.04259982  0.12199818  0.03114511     0.79800
H1143       H  0.93474203  0.83527524  0.44477834     0.42800
H1144       H  0.93800727  0.90628279  0.91569773     0.41800
H1145       H  0.92770163  0.07103666  0.89660028     0.41500
H1146       H  0.96523329  0.23129108  0.95464619     0.39400
H1147       H  0.93665189  0.23281708  0.03026779     0.42500
H1148       H  0.91793741  0.13697491  0.56451895     0.37300
H1149       H  0.97174355  0.93922908  0.58594586     0.43400
H1150       H  0.96462301  0.80234699  0.50923629     0.39800
H1151       H  0.95323156  0.17733226  0.93730589     0.44800
H1152       H  0.97883723  0.13067218  0.57421858     0.43500
H1153       H  0.95351097  0.83959640  0.53525291     0.43600
H1154       H  0.93272767  0.88895104  0.94649612     0.44000
O1155       O  0.50322766  0.38676237  0.81391035    -0.74900
O1156       O  0.48400141  0.31576013  0.78607681    -0.53800
C1157       C  0.47598680  0.34261420  0.80838116     0.78800
O1158       O  0.33960492  0.56031139  0.72253582    -0.59500
O1159       O  0.40908769  0.62529623  0.72595619    -0.52500
C1160       C  0.36067531  0.60895232  0.71851335     0.70800
O1161       O  0.36637270  0.37321305  0.75136026    -0.74100
O1162       O  0.41806091  0.30349344  0.73919096    -0.54600
C1163       C  0.37331500  0.32990060  0.73646812     0.76900
O1164       O  0.46431810  0.56911699  0.81647987    -0.59200
O1165       O  0.45616768  0.62963851  0.78136132    -0.52300
C1166       C  0.45062497  0.61574782  0.80645902     0.73400
Zr1167     Zr  0.47293194  0.47630523  0.79852841     2.54700
O1168       O  0.37888117  0.45269890  0.81264248    -0.79800
O1169       O  0.49462075  0.49792963  0.84620233    -0.93200
Zr1170     Zr  0.37215926  0.46919580  0.73601055     2.64700
O1171       O  0.28459101  0.47198205  0.76075044    -0.98100
O1172       O  0.31765619  0.45583435  0.69440374    -0.80200
O1173       O  0.42496802  0.41708540  0.76786671    -0.83600
O1174       O  0.41841506  0.52751483  0.76752787    -2.18300
O1175       O  0.63758058  0.57465188  0.75459807    -0.66900
O1176       O  0.56168616  0.62413803  0.76619217    -0.51500
C1177       C  0.61327022  0.61299816  0.76793700     0.71800
O1178       O  0.47952541  0.37758276  0.67371972    -0.59900
O1179       O  0.50708339  0.31271200  0.70212651    -0.51800
C1180       C  0.51250477  0.33919703  0.67979716     0.73600
O1181       O  0.50499775  0.56779389  0.66812584    -0.71200
O1182       O  0.51570549  0.62876854  0.70379100    -0.49900
C1183       C  0.52007175  0.61493915  0.67846666     0.75000
O1184       O  0.63731292  0.38666845  0.74107840    -0.66600
O1185       O  0.58103818  0.31901499  0.75459183    -0.53800
C1186       C  0.62641790  0.34669568  0.75718143     0.73400
Zr1187     Zr  0.60592952  0.48027166  0.74866386     2.77500
O1188       O  0.68802209  0.49002740  0.71989503    -0.97300
O1189       O  0.66619029  0.47439602  0.78870885    -0.78100
Zr1190     Zr  0.50207163  0.47338513  0.68566259     2.70100
O1191       O  0.59032006  0.46885454  0.66204480    -0.79400
O1192       O  0.45098366  0.48248018  0.64275952    -0.98500
Zr1193     Zr  0.49560826  0.36532801  0.74383672     2.21500
Zr1194     Zr  0.48696946  0.57762608  0.74279876     2.11100
O1195       O  0.55489041  0.53024558  0.71650353    -2.47200
O1196       O  0.55763865  0.42202421  0.71687980    -0.79200
O1197       O  0.53338075  0.52109524  0.77058151    -0.71400
O1198       O  0.43908476  0.41849148  0.71211089    -2.32300
O1199       O  0.54428135  0.42766611  0.77503203    -2.28500
O1200       O  0.43627164  0.52344685  0.71086479    -0.73100
H1201       H  0.39088376  0.55035453  0.77625522     0.78900
H1202       H  0.41356571  0.39679327  0.70115414     0.79900
H1203       H  0.58139480  0.55374154  0.70720798     0.82200
H1204       H  0.57062907  0.41216062  0.78735582     0.79800
H1205       H  0.34443717  0.46110989  0.67926369     0.42800
H1206       H  0.47959783  0.48417051  0.62826947     0.41800
H1207       H  0.61882589  0.47662746  0.67624261     0.41500
H1208       H  0.68435006  0.52637256  0.71085684     0.39400
H1209       H  0.67471036  0.51314994  0.79430011     0.42500
H1210       H  0.52610227  0.47441403  0.85117870     0.37300
H1211       H  0.35587287  0.48490016  0.80798737     0.43400
H1212       H  0.28655813  0.50700752  0.77150653     0.39800
H1213       H  0.71914762  0.49544239  0.73299294     0.44800
H1214       H  0.46273495  0.48345668  0.85677370     0.43500
H1215       H  0.25633713  0.47881506  0.74645215     0.43600
H1216       H  0.43110396  0.44669364  0.63980532     0.44000
C1217       C  0.17118877  0.83531986  0.57874360    -0.05700
C1218       C  0.14832740  0.80004462  0.55800241    -0.16900
C1219       C  0.12401066  0.82046043  0.53433426     0.11500
C1220       C  0.12410645  0.87779884  0.53020532    -0.05700
C1221       C  0.15336485  0.91248968  0.54855505    -0.16900
C1222       C  0.17854802  0.89209603  0.57205686     0.11500
S1223       S  0.09556679  0.77121406  0.50980908    -0.31900
S1224       S  0.22229633  0.94096524  0.59045964    -0.31900
H1225       H  0.26593409  0.90432129  0.59513436     0.29500
H1226       H  0.10274547  0.80540235  0.48686237     0.29500
H1227       H  0.15157528  0.75553174  0.55928817     0.20100
H1228       H  0.15576496  0.95642365  0.54485153     0.20100
C1229       C  0.29998335  0.70962331  0.65469752    -0.05700
C1230       C  0.32810522  0.73387212  0.67708319    -0.16900
C1231       C  0.34092097  0.70315395  0.70016281     0.11500
C1232       C  0.33230004  0.64520889  0.69947446    -0.05700
C1233       C  0.31299657  0.61980604  0.67523280    -0.16900
C1234       C  0.29975790  0.65091687  0.65236705     0.11500
S1235       S  0.36753249  0.74038351  0.72981158    -0.31900
S1236       S  0.28910103  0.61170717  0.62089480    -0.31900
H1237       H  0.28620441  0.65542497  0.60251540     0.29500
H1238       H  0.34715326  0.70222004  0.74910424     0.29500
H1239       H  0.33982903  0.77720552  0.67679436     0.20100
H1240       H  0.31251563  0.57494283  0.67324743     0.20100
C1241       C  0.31826899  0.34409404  0.84235564    -0.05700
C1242       C  0.36160377  0.37167572  0.85609034    -0.16900
C1243       C  0.41559385  0.36112761  0.84797043     0.11500
C1244       C  0.42416696  0.33456025  0.82253051    -0.05700
C1245       C  0.37850970  0.31829633  0.80640234    -0.16900
C1246       C  0.32553456  0.33051647  0.81487721     0.11500
S1247       S  0.47089191  0.37502549  0.87214227    -0.31900
S1248       S  0.26921711  0.33039062  0.79035993    -0.31900
H1249       H  0.22871980  0.34892432  0.80874615     0.29500
H1250       H  0.50164755  0.32849294  0.86395777     0.29500
H1251       H  0.35433389  0.39036968  0.87602166     0.20100
H1252       H  0.38395114  0.29952517  0.78660448     0.20100
C1253       C  0.18089700  0.21902503  0.91331447    -0.05700
C1254       C  0.15776868  0.25413797  0.93364734    -0.16900
C1255       C  0.13520616  0.23346968  0.95751783     0.11500
C1256       C  0.13726796  0.17659597  0.96181736    -0.05700
C1257       C  0.16742272  0.14234299  0.94413448    -0.16900
C1258       C  0.19109076  0.16326760  0.92046748     0.11500
S1259       S  0.10590961  0.27975407  0.98289794    -0.31900
S1260       S  0.23928689  0.11950746  0.90239355    -0.31900
H1261       H  0.25227347  0.08582336  0.92483816     0.29500
H1262       H  0.11005174  0.32857139  0.96745218     0.29500
H1263       H  0.16097731  0.29856462  0.93224950     0.20100
H1264       H  0.17062266  0.09837982  0.94815049     0.20100
C1265       C  0.81045640  0.19788216  0.59112997    -0.05700
C1266       C  0.83712559  0.15627230  0.60581917    -0.16900
C1267       C  0.83185937  0.10076245  0.59721001     0.11500
C1268       C  0.80668712  0.08927048  0.57158417    -0.05700
C1269       C  0.78745893  0.13357843  0.55599053    -0.16900
C1270       C  0.79943237  0.18774827  0.56365859     0.11500
S1271       S  0.85232463  0.04593062  0.61993152    -0.31900
S1272       S  0.79425696  0.24324887  0.53917011    -0.31900
H1273       H  0.82157986  0.28340935  0.55539354     0.29500
H1274       H  0.87909464  0.08026609  0.63950834     0.29500
H1275       H  0.85541049  0.16652854  0.62552365     0.20100
H1276       H  0.76498425  0.12631871  0.53734811     0.20100
C1277       C  0.67073393  0.35008947  0.64661946    -0.05700
C1278       C  0.62743245  0.37371140  0.63200376    -0.16900
C1279       C  0.57351255  0.36294044  0.64077266     0.11500
C1280       C  0.56629061  0.34099751  0.66723237    -0.05700
C1281       C  0.61259062  0.33409974  0.68435274    -0.16900
C1282       C  0.66513614  0.34576885  0.67453851     0.11500
S1283       S  0.51705171  0.37449165  0.61706652    -0.31900
S1284       S  0.72620687  0.34746231  0.69565582    -0.31900
H1285       H  0.70248770  0.31547802  0.71657229     0.29500
H1286       H  0.48430173  0.32938843  0.62600973     0.29500
H1287       H  0.63464934  0.38877776  0.61146674     0.20100
H1288       H  0.60770345  0.32059389  0.70507400     0.20100
C1289       C  0.69974594  0.70205284  0.82981186    -0.05700
C1290       C  0.65714852  0.66524887  0.83670584    -0.16900
C1291       C  0.63048371  0.63381041  0.81665331     0.11500
C1292       C  0.64465195  0.64153024  0.78905446    -0.05700
C1293       C  0.69191390  0.67167582  0.78227433    -0.16900
C1294       C  0.72200830  0.69955112  0.80257448     0.11500
S1295       S  0.58424288  0.57883958  0.82686849    -0.31900
S1296       S  0.78940046  0.72492905  0.79131772    -0.31900
H1297       H  0.80834308  0.75653066  0.81358024     0.29500
H1298       H  0.57571903  0.59759923  0.85391141     0.29500
H1299       H  0.64726060  0.65791354  0.85780262     0.20100
H1300       H  0.70607971  0.67230115  0.76120138     0.20100
C1301       C  0.81490681  0.84872436  0.90277414    -0.05700
C1302       C  0.79801654  0.85581601  0.92981160    -0.16900
C1303       C  0.77844689  0.90745215  0.93776803     0.11500
C1304       C  0.79857755  0.95452240  0.92399687    -0.05700
C1305       C  0.82895776  0.94735926  0.89964005    -0.16900
C1306       C  0.84067948  0.89427829  0.89005687     0.11500
S1307       S  0.72410137  0.91097447  0.96321772    -0.31900
S1308       S  0.88864040  0.88683058  0.86184147    -0.31900
H1309       H  0.89548705  0.82958276  0.86451475     0.29500
H1310       H  0.70050732  0.95946426  0.95268725     0.29500
H1311       H  0.78967116  0.81976092  0.94217625     0.20100
H1312       H  0.84797807  0.98248520  0.88945327     0.20100
C1313       C  0.81098453  0.22663138  0.91709956    -0.05700
C1314       C  0.79102756  0.17202147  0.92011328    -0.16900
C1315       C  0.77977655  0.15147395  0.94599831     0.11500
C1316       C  0.80577231  0.17696215  0.96884807    -0.05700
C1317       C  0.83020743  0.22886704  0.96628254    -0.16900
C1318       C  0.82801206  0.25661449  0.94155514     0.11500
S1319       S  0.72270220  0.10244001  0.94960894    -0.31900
S1320       S  0.83360712  0.33150759  0.94489588    -0.31900
H1321       H  0.85640062  0.33511309  0.97143411     0.29500
H1322       H  0.70255008  0.10487379  0.92256437     0.29500
H1323       H  0.77242142  0.15038213  0.90288613     0.20100
H1324       H  0.84717142  0.24923077  0.98439115     0.20100
C1325       C  0.65633274  0.34280806  0.78332203    -0.05700
C1326       C  0.62376636  0.33356339  0.80675393    -0.16900
C1327       C  0.64366455  0.34883296  0.83237608     0.11500
C1328       C  0.70012769  0.35062486  0.83632851    -0.05700
C1329       C  0.73451845  0.35846230  0.81316069    -0.16900
C1330       C  0.71237528  0.35895982  0.78686061     0.11500
S1331       S  0.60214626  0.39357417  0.85283137    -0.31900
S1332       S  0.75772963  0.37611997  0.75892929    -0.31900
H1333       H  0.80192423  0.39785422  0.77483557     0.29500
H1334       H  0.64606341  0.41559298  0.86889976     0.29500
H1335       H  0.58050810  0.32378260  0.80481252     0.20100
H1336       H  0.77917669  0.35815577  0.81502153     0.20100
C1337       C  0.19424879  0.86218159  0.90343515    -0.05700
C1338       C  0.14361721  0.84671012  0.91416746    -0.16900
C1339       C  0.10350217  0.88545799  0.91903122     0.11500
C1340       C  0.11816615  0.94248774  0.91892573    -0.05700
C1341       C  0.17323013  0.95833309  0.91375484    -0.16900
C1342       C  0.21179055  0.91856348  0.90571316     0.11500
S1343       S  0.03531261  0.85855606  0.92635409    -0.31900
S1344       S  0.28283198  0.93993130  0.89931451    -0.31900
H1345       H  0.27400421  0.99735428  0.90034661     0.29500
H1346       H  0.04147597  0.80632901  0.91363480     0.29500
H1347       H  0.13534766  0.80445393  0.91934986     0.20100
H1348       H  0.18573839  0.00140882  0.91619863     0.20100
C1349       C  0.33434883  0.72236564  0.84145105    -0.05700
C1350       C  0.33611412  0.66693016  0.84976593    -0.16900
C1351       C  0.37776751  0.63200792  0.84140705     0.11500
C1352       C  0.41922518  0.65293089  0.82377519    -0.05700
C1353       C  0.42191561  0.70952695  0.81813990    -0.16900
C1354       C  0.38217276  0.74520202  0.82837565     0.11500
S1355       S  0.37541429  0.56134676  0.85355141    -0.31900
S1356       S  0.39997949  0.81805346  0.82623020    -0.31900
H1357       H  0.38344981  0.83228453  0.85288080     0.29500
H1358       H  0.32204700  0.56184810  0.86521512     0.29500
H1359       H  0.30658804  0.65133835  0.86446826     0.20100
H1360       H  0.45572747  0.72603454  0.80590178     0.20100
C1361       C  0.65100576  0.71615195  0.65133459    -0.05700
C1362       C  0.64543958  0.66079698  0.64204563    -0.16900
C1363       C  0.59626725  0.63059049  0.64517812     0.11500
C1364       C  0.55429635  0.65229066  0.66196397    -0.05700
C1365       C  0.55733405  0.70803875  0.66988404    -0.16900
C1366       C  0.60240787  0.74134599  0.66256937     0.11500
S1367       S  0.58654080  0.56693517  0.62577709    -0.31900
S1368       S  0.58910740  0.81472734  0.66508195    -0.31900
H1369       H  0.60838033  0.82781666  0.63880968     0.29500
H1370       H  0.63739570  0.56781572  0.61167508     0.29500
H1371       H  0.67719134  0.64307048  0.62925707     0.20100
H1372       H  0.52339880  0.72599125  0.68137419     0.20100
C1373       C  0.79876419  0.86596500  0.52514794    -0.05700
C1374       C  0.77436947  0.90142718  0.54437379    -0.16900
C1375       C  0.77311189  0.88967386  0.57228109     0.11500
C1376       C  0.79525179  0.83867176  0.58171510    -0.05700
C1377       C  0.81902316  0.80309586  0.56161504    -0.16900
C1378       C  0.81821161  0.81480895  0.53377450     0.11500
S1379       S  0.73157363  0.93487286  0.59353933    -0.31900
S1380       S  0.83281783  0.75899941  0.51000044    -0.31900
H1381       H  0.79246310  0.80261928  0.99545792     0.29500
H1382       H  0.71036156  0.96940165  0.57308579     0.29500
H1383       H  0.75423210  0.93805778  0.53724741     0.20100
H1384       H  0.82933352  0.76110178  0.56610027     0.20100
C1385       C  0.29160478  0.33442943  0.65953714    -0.05700
C1386       C  0.34581276  0.31376600  0.66241168    -0.16900
C1387       C  0.36561568  0.29877180  0.68793626     0.11500
C1388       C  0.34131428  0.32214934  0.71137426    -0.05700
C1389       C  0.29072485  0.34860382  0.70922884    -0.16900
C1390       C  0.26319117  0.35104770  0.68415809     0.11500
S1391       S  0.41100184  0.23968024  0.69008026    -0.31900
S1392       S  0.18965814  0.36491257  0.68634017    -0.31900
H1393       H  0.18376272  0.36342626  0.71499464     0.29500
H1394       H  0.42865950  0.23936934  0.66262418     0.29500
H1395       H  0.36674247  0.29583890  0.64513385     0.20100
H1396       H  0.27168081  0.36530316  0.72755783     0.20100
C1397       C  0.12141187  0.08471635  0.57388136    -0.05700
C1398       C  0.09277091  0.11938881  0.59201041    -0.16900
C1399       C  0.11348319  0.17191849  0.59928427     0.11500
C1400       C  0.16706142  0.18879201  0.59014338    -0.05700
C1401       C  0.19841961  0.14926773  0.57556801    -0.16900
C1402       C  0.17563262  0.09959265  0.56601256     0.11500
S1403       S  0.07370959  0.21208932  0.62353911    -0.31900
S1404       S  0.21735743  0.05561762  0.54422504    -0.31900
H1405       H  0.26023647  0.09440346  0.53915048     0.31900
H1406       H  0.02235531  0.18483785  0.61914546     0.29500
H1407       H  0.05256292  0.10640354  0.59955545     0.20100
H1408       H  0.24241649  0.15390462  0.57326397     0.20100
loop_ 
_geom_bond_atom_site_label_1 
_geom_bond_atom_site_label_2 
_geom_bond_distance 
_geom_bond_site_symmetry_2 
_ccdc_geom_bond_type 
C1            C3   1.584       .  S
C1            C5   1.583       .  S
C1            C4   1.552       .  S
C1          C696   1.519       .  S
C2            C6   1.540       .  S
C2            C8   1.570       .  S
C2            C7   1.548       .  S
C2          C681   1.496       .  S
C3           C11   1.411       .  A
C3            C6   1.391       .  A
C4           C15   1.409       .  A
C4            C7   1.349       .  A
C5           C19   1.409       .  A
C5            C8   1.385       .  A
C6            C9   1.386       .  A
C7           C13   1.405       .  A
C8           C16   1.411       .  A
C9           N10   1.356       .  A
C9           H22   1.083       .  S
N10          C11   1.380       .  A
N10          C44   1.478       .  S
C11          H12   1.082       .  S
C13          N14   1.355       .  A
C13          H23   1.075       .  S
N14          C15   1.370       .  A
N14         C104   1.480       .  S
C15          H21   1.081       .  S
C16          N17   1.371       .  A
C16          H18   1.082       .  S
N17          C19   1.368       .  A
N17         C285   1.489       .  S
C19          H20   1.082       .  S
N24          C29   1.365       .  A
N24          C28   1.370       .  A
N24          H56   1.039       .  S
N25          C32   1.362   1_655  A
N25          C33   1.360       .  A
N26          C31   1.364       .  A
N26          C30   1.361       .  A
N26          H57   1.042       .  S
N27          C34   1.367   1_655  A
N27          C35   1.369       .  A
C28          C36   1.386       .  A
C28          C44   1.443       .  A
C29          C45   1.441       .  A
C29          C37   1.387       .  A
C30          C38   1.383       .  A
C30          C47   1.426       .  A
C31          C46   1.429       .  A
C31          C39   1.387       .  A
C32          C44   1.428       .  A
C32          C40   1.384       .  A
C33          C47   1.426       .  A
C33          C41   1.385       .  A
C34          C42   1.386       .  A
C34          C45   1.442       .  A
C35          C43   1.387       .  A
C35          C46   1.446       .  A
C36          C37   1.384       .  A
C36          H48   1.082       .  S
C37          H49   1.081       .  S
C38          C39   1.376       .  A
C38          H50   1.080       .  S
C39          H51   1.081       .  S
C40          C41   1.376   1_455  A
C40          H52   1.080       .  S
C41          H53   1.082       .  S
C42          C43   1.383   1_455  A
C42          H54   1.082       .  S
C43          H55   1.082       .  S
C45         N375   1.477       .  S
C46          N67   1.480       .  S
C47         N329   1.466       .  S
C58          C60   1.533       .  S
C58          C62   1.560       .  S
C58          C61   1.584       .  S
C58         C672   1.492       .  S
C59          C63   1.584       .  S
C59          C65   1.551       .  S
C59          C64   1.550       .  S
C59         C657   1.501       .  S
C60          C68   1.385       .  A
C60          C63   1.377       .  A
C61          C72   1.411       .  A
C61          C64   1.390       .  A
C62          C76   1.413       .  A
C62          C65   1.358       .  A
C63          C66   1.415       .  A
C64          C70   1.397       .  A
C65          C73   1.402       .  A
C66          N67   1.381       .  A
C66          H79   1.082       .  S
N67          C68   1.354       .  A
C68          H69   1.082       .  S
C70          N71   1.362       .  A
C70          H80   1.082       .  S
N71          C72   1.369       .  A
N71         C136   1.481       .  S
C72          H78   1.069       .  S
C73          N74   1.369       .  A
C73          H75   1.082       .  S
N74          C76   1.368       .  A
N74         C251   1.486       .  S
C76          H77   1.078       .  S
N81          C86   1.366       .  A
N81          C85   1.368       .  A
N81         H113   1.041       .  S
N82          C89   1.365   1_545  A
N82          C90   1.362       .  A
N83          C88   1.373       .  A
N83          C87   1.370       .  A
N83         H114   1.039       .  S
N84          C91   1.363   1_545  A
N84          C92   1.365       .  A
C85          C93   1.387       .  A
C85         C101   1.443       .  A
C86         C102   1.437       .  A
C86          C94   1.386       .  A
C87          C95   1.389       .  A
C87         C104   1.453       .  A
C88         C103   1.452       .  A
C88          C96   1.386       .  A
C89         C101   1.429       .  A
C89          C97   1.383   1_565  A
C90         C104   1.432       .  A
C90          C98   1.387       .  A
C91          C99   1.388   1_565  A
C91         C102   1.437       .  A
C92         C100   1.382       .  A
C92         C103   1.429       .  A
C93          C94   1.385       .  A
C93         H105   1.082       .  S
C94         H106   1.082       .  S
C95          C96   1.391       .  A
C95         H107   1.082       .  S
C96         H108   1.082       .  S
C97          C98   1.375       .  A
C97         H109   1.081   1_545  S
C98         H110   1.082       .  S
C99         C100   1.376       .  A
C99         H111   1.081   1_545  S
C100        H112   1.081       .  S
C101        N379   1.481       .  S
C102        N162   1.475       .  S
C103        N356   1.486       .  S
N115        C120   1.365   1_545  A
N115        C119   1.366       .  A
N115        H147   1.040       .  S
N116        C123   1.369       .  A
N116        C124   1.369       .  A
N117        C122   1.365   1_545  A
N117        C121   1.365       .  A
N117        H148   1.040       .  S
N118        C125   1.370       .  A
N118        C126   1.368       .  A
C119        C127   1.387       .  A
C119        C135   1.436       .  A
C120        C136   1.436       .  A
C120        C128   1.386       .  A
C121        C129   1.386       .  A
C121        C138   1.435       .  A
C122        C137   1.438       .  A
C122        C130   1.388   1_565  A
C123        C135   1.444       .  A
C123        C131   1.385       .  A
C124        C138   1.445       .  A
C124        C132   1.386       .  A
C125        C133   1.383       .  A
C125        C136   1.439       .  A
C126        C134   1.383       .  A
C126        C137   1.443       .  A
C127        C128   1.382   1_545  A
C127        H139   1.082       .  S
C128        H140   1.082       .  S
C129        C130   1.381       .  A
C129        H141   1.082       .  S
C130        H142   1.082   1_545  S
C131        C132   1.380       .  A
C131        H143   1.081       .  S
C132        H144   1.082       .  S
C133        C134   1.378       .  A
C133        H145   1.082       .  S
C134        H146   1.074       .  S
C135        N336   1.483       .  S
C137        N313   1.482       .  S
C138        N222   1.481       .  S
C149        C151   1.573       .  S
C149        C153   1.544       .  S
C149        C152   1.545       .  S
C149        C633   1.501       .  S
C150        C154   1.574       .  S
C150        C156   1.544       .  S
C150        C155   1.551       .  S
C150        C645   1.497       .  S
C151        C159   1.402       .  A
C151        C154   1.394       .  A
C152        C163   1.388       .  A
C152        C155   1.368       .  A
C153        C167   1.400       .  A
C153        C156   1.368       .  A
C154        C157   1.402       .  A
C155        C161   1.408       .  A
C156        C164   1.389       .  A
C157        N158   1.367       .  A
C157        H170   1.082       .  S
N158        C159   1.370       .  A
N158        C193   1.480       .  S
C159        H160   1.082       .  S
C161        N162   1.371       .  A
C161        H171   1.082       .  S
N162        C163   1.361       .  A
C163        H169   1.082       .  S
C164        N165   1.363       .  A
C164        H166   1.083       .  S
N165        C167   1.368       .  A
N165        C249   1.469       .  S
C167        H168   1.082       .  S
N172        C177   1.367       .  A
N172        C176   1.366       .  A
N172        H204   1.040       .  S
N173        C180   1.358   1_655  A
N173        C181   1.361       .  A
N174        C179   1.359       .  A
N174        C178   1.362       .  A
N174        H205   1.040       .  S
N175        C182   1.365   1_655  A
N175        C183   1.364       .  A
C176        C184   1.387       .  A
C176        C192   1.440       .  A
C177        C193   1.440       .  A
C177        C185   1.387       .  A
C178        C186   1.386       .  A
C178        C195   1.427       .  A
C179        C194   1.426       .  A
C179        C187   1.387       .  A
C180        C192   1.429       .  A
C180        C188   1.388       .  A
C181        C195   1.423       .  A
C181        C189   1.383       .  A
C182        C190   1.387       .  A
C182        C193   1.436       .  A
C183        C191   1.384       .  A
C183        C194   1.433       .  A
C184        C185   1.386       .  A
C184        H196   1.082       .  S
C185        H197   1.082       .  S
C186        C187   1.379       .  A
C186        H198   1.082       .  S
C187        H199   1.082       .  S
C188        C189   1.375   1_455  A
C188        H200   1.082       .  S
C189        H201   1.082       .  S
C190        C191   1.379   1_455  A
C190        H202   1.082       .  S
C191        H203   1.080       .  S
C192        N352   1.471       .  S
C194        N306   1.466       .  S
C195        N215   1.464       .  S
C206        C208   1.547       .  S
C206        C210   1.552       .  S
C206        C209   1.591       .  S
C206        C624   1.504       .  S
C207        C211   1.545       .  S
C207        C213   1.570       .  S
C207        C212   1.559       .  S
C207        C609   1.504       .  S
C208        C216   1.391       .  A
C208        C211   1.375       .  A
C209        C220   1.432       .  A
C209        C212   1.381       .  A
C210        C224   1.392       .  A
C210        C213   1.374       .  A
C211        C214   1.395       .  A
C212        C218   1.395       .  A
C213        C221   1.413       .  A
C214        N215   1.364       .  A
C214        H227   1.082       .  S
N215        C216   1.362       .  A
C216        H217   1.082       .  S
C218        N219   1.354       .  A
C218        H228   1.077       .  S
N219        C220   1.382       .  A
N219        C283   1.496       .  S
C220        H226   1.073       .  S
C221        N222   1.377       .  A
C221        H223   1.082       .  S
N222        C224   1.359       .  A
C224        H225   1.081       .  S
N229        C234   1.364       .  A
N229        C233   1.360       .  A
N229        H261   1.041       .  S
N230        C237   1.364       .  A
N230        C942   1.366       .  A
N231        C236   1.363       .  A
N231        C235   1.368       .  A
N231        H262   1.041       .  S
N232        C239   1.368       .  A
N232        C944   1.367       .  A
C233        C241   1.389       .  A
C233        C249   1.432       .  A
C234        C250   1.426       .  A
C234        C242   1.384       .  A
C235        C243   1.383       .  A
C235        C252   1.434       .  A
C236        C251   1.439       .  A
C236        C244   1.389       .  A
C237        C249   1.434       .  A
C237        C245   1.385       .  A
C238        C252   1.439       .  A
C238        C246   1.387       .  A
C238        N934   1.366   1_554  A
C239        C247   1.386       .  A
C239        C250   1.443       .  A
C240        C248   1.386       .  A
C240        C251   1.453       .  A
C240        N936   1.372   1_554  A
C241        C242   1.380       .  A
C241        H253   1.082       .  S
C242        H254   1.082       .  S
C243        C244   1.381       .  A
C243        H255   1.082       .  S
C244        H256   1.081       .  S
C245        C950   1.381       .  A
C245        H257   1.082       .  S
C246        C949   1.380   1_554  A
C246        H258   1.082       .  S
C247        C952   1.382       .  A
C247        H259   1.082       .  S
C248        C951   1.389   1_554  A
C248        H260   1.081       .  S
C250        N310   1.479       .  S
C252        N382   1.484       .  S
N263        C267   1.374       .  A
N263        C972   1.370       .  A
N263        H295   1.041       .  S
N264        C271   1.370       .  A
N264        C272   1.366       .  A
N265        C269   1.366       .  A
N265        C974   1.371       .  A
N265        H296   1.040       .  S
N266        C273   1.370       .  A
N266        C274   1.372       .  A
C267        C275   1.389       .  A
C267        C283   1.454       .  A
C268        C284   1.462       .  A
C268        C276   1.387       .  A
C268        N967   1.377       .  A
C269        C277   1.388       .  A
C269        C286   1.441       .  A
C270        C285   1.441       .  A
C270        C278   1.386       .  A
C270        N969   1.368       .  A
C271        C283   1.438       .  A
C271        C279   1.383       .  A
C272        C286   1.445       .  A
C272        C280   1.389       .  A
C273        C281   1.388       .  A
C273        C284   1.447       .  A
C274        C282   1.385       .  A
C274        C285   1.445       .  A
C275        C980   1.384       .  A
C275        H287   1.081       .  S
C276        C979   1.391   1_554  A
C276        H288   1.081       .  S
C277        C982   1.383       .  A
C277        H289   1.082       .  S
C278        C981   1.382   1_554  A
C278        H290   1.082       .  S
C279        C280   1.379       .  A
C279        H291   1.081       .  S
C280        H292   1.081       .  S
C281        C282   1.382       .  A
C281        H293   1.081       .  S
C282        H294   1.082       .  S
C284        N333   1.498       .  S
C286        N359   1.480       .  S
C297        C299   1.536       .  S
C297        C301   1.568       .  S
C297        C300   1.576       .  S
C297        C597   1.507       .  S
C298        C302   1.544       .  S
C298        C304   1.545       .  S
C298        C303   1.586       .  S
C298        C585   1.504       .  S
C299        C307   1.394       .  A
C299        C302   1.371       .  A
C300        C311   1.404       .  A
C300        C303   1.398       .  A
C301        C315   1.406       .  A
C301        C304   1.371       .  A
C302        C305   1.391       .  A
C303        C309   1.419       .  A
C304        C312   1.398       .  A
C305        N306   1.364       .  A
C305        H318   1.082       .  S
N306        C307   1.365       .  A
C307        H308   1.081       .  S
C309        N310   1.370       .  A
C309        H319   1.079       .  S
N310        C311   1.350       .  A
C311        H317   1.071       .  S
C312        N313   1.365       .  A
C312        H314   1.082       .  S
N313        C315   1.370       .  A
C315        H316   1.079       .  S
C320        C322   1.529       .  S
C320        C324   1.569       .  S
C320        C323   1.571       .  S
C320        C561   1.496       .  S
C321        C325   1.543       .  S
C321        C327   1.582       .  S
C321        C326   1.589       .  S
C321        C573   1.510       .  S
C322        C330   1.385       .  A
C322        C325   1.370       .  A
C323        C334   1.414       .  A
C323        C326   1.381       .  A
C324        C338   1.410       .  A
C324        C327   1.379       .  A
C325        C328   1.395       .  A
C326        C332   1.417       .  A
C327        C335   1.415       .  A
C328        N329   1.368       .  A
C328        H341   1.081       .  S
N329        C330   1.361       .  A
C330        H331   1.082       .  S
C332        N333   1.374       .  A
C332        H342   1.078       .  S
N333        C334   1.367       .  A
C334        H340   1.079       .  S
C335        N336   1.357       .  A
C335        H337   1.065       .  S
N336        C338   1.360       .  A
C338        H339   1.073       .  S
C343        C345   1.536       .  S
C343        C347   1.565       .  S
C343        C346   1.579       .  S
C343        C537   1.507       .  S
C344        C348   1.564       .  S
C344        C350   1.549       .  S
C344        C349   1.578       .  S
C344        C549   1.508       .  S
C345        C353   1.396       .  A
C345        C348   1.375       .  A
C346        C357   1.406       .  A
C346        C349   1.390       .  A
C347        C361   1.403       .  A
C347        C350   1.365       .  A
C348        C351   1.395       .  A
C349        C355   1.417       .  A
C350        C358   1.405       .  A
C351        N352   1.366       .  A
C351        H364   1.082       .  S
N352        C353   1.365       .  A
C353        H354   1.082       .  S
C355        N356   1.377       .  A
C355        H365   1.082       .  S
N356        C357   1.357       .  A
C357        H363   1.078       .  S
C358        N359   1.364       .  A
C358        H360   1.082       .  S
N359        C361   1.359       .  A
C361        H362   1.067       .  S
C366        C368   1.565       .  S
C366        C370   1.556       .  S
C366        C369   1.570       .  S
C366        C525   1.505       .  S
C367        C371   1.559       .  S
C367        C373   1.545       .  S
C367        C372   1.572       .  S
C367        C513   1.506       .  S
C368        C376   1.404       .  A
C368        C371   1.376       .  A
C369        C380   1.401       .  A
C369        C372   1.393       .  A
C370        C384   1.410       .  A
C370        C373   1.367       .  A
C371        C374   1.403       .  A
C372        C378   1.410       .  A
C373        C381   1.394       .  A
C374        N375   1.365       .  A
C374        H387   1.082       .  S
N375        C376   1.367       .  A
C376        H377   1.081       .  S
C378        N379   1.374       .  A
C378        H388   1.082       .  S
N379        C380   1.357       .  A
C380        H386   1.076       .  S
C381        N382   1.363       .  A
C381        H383   1.082       .  S
N382        C384   1.377       .  A
C384        H385   1.082       .  S
O389       Zr401   2.433   1_455  S
O389        C391   1.281       .  A
O390      Zr1131   2.358   1_554  S
O390        C391   1.270       .  A
C391        C693   1.459       .  S
O392       Zr404   2.439   1_556  S
O392        C394   1.278   1_556  A
O393      Zr1132   2.366   1_565  S
O393        C394   1.265       .  A
C394        C669   1.447       .  S
O395       Zr404   2.436   1_455  S
O395        C397   1.286       .  A
O396      Zr1131   2.355   1_564  S
O396        C397   1.271       .  A
C397        C516   1.445       .  S
O398       Zr401   2.413       .  S
O398        C400   1.268       .  A
O399      Zr1132   2.403       .  S
O399        C400   1.276       .  A
C400        C564   1.449       .  S
Zr401       O402   2.434       .  S
Zr401       O403   2.445       .  S
Zr401       O407   2.274   1_645  S
Zr401       O408   2.394   1_545  S
Zr401      O1135   2.375       .  S
Zr401      O1137   2.372   1_655  S
O402        H445   0.990   1_545  S
O403        H444   0.988       .  S
O403        H448   0.988       .  S
Zr404       O405   2.434       .  S
Zr404       O406   2.437   1_554  S
Zr404       O407   2.278   1_655  S
Zr404       O408   2.348       .  S
Zr404      O1136   2.339   1_654  S
Zr404      O1138   2.379   1_554  S
O405        H446   0.990       .  S
O405        H449   0.990       .  S
O406        H439   0.989       .  S
O407      Zr1131   2.255   1_564  S
O408      Zr1132   2.435   1_565  S
O408        H435   0.955       .  S
O409       Zr421   2.448       .  S
O409        C411   1.283       .  A
O410       Zr428   2.358       .  S
O410        C411   1.266       .  A
C411        C612   1.452       .  S
O412       Zr424   2.410   1_455  S
O412        C414   1.277       .  A
O413       Zr427   2.395       .  S
O413        C414   1.280       .  A
C414        C636   1.452   1_545  S
O415       Zr424   2.422       .  S
O415        C417   1.268       .  A
O416       Zr428   2.412       .  S
O416        C417   1.270       .  A
C417        C600   1.453   1_545  S
O418       Zr421   2.429   1_455  S
O418        C420   1.285       .  A
O419       Zr427   2.364       .  S
O419        C420   1.271       .  A
C420        C552   1.442       .  S
Zr421       O422   2.434       .  S
Zr421       O423   2.436       .  S
Zr421       O429   2.366       .  S
Zr421       O430   2.379       .  S
Zr421       O433   2.356       .  S
Zr421       O431   2.372       .  S
O422        H442   0.990       .  S
O422        H447   0.989       .  S
O423        H443   0.990       .  S
Zr424       O425   2.433       .  S
Zr424       O426   2.456       .  S
Zr424       O434   2.336   1_545  S
Zr424       O430   2.324       .  S
Zr424       O429   2.350       .  S
Zr424       O432   2.409   1_545  S
O425        H441   0.991       .  S
O426        H440   0.990       .  S
O426        H450   0.990       .  S
Zr427      O1094   2.369       .  S
Zr427      O1100   2.382   1_545  S
Zr427      O1111   2.251   1_445  S
Zr427       O430   2.373   1_455  S
Zr427       O432   2.386   1_445  S
Zr427       O433   2.386   1_455  S
Zr428      O1097   2.393   1_545  S
Zr428      O1103   2.421       .  S
Zr428       O434   2.300   1_545  S
Zr428       O429   2.431       .  S
Zr428       O431   2.406       .  S
Zr428      O1112   2.402   1_545  S
O429        H437   0.961       .  S
O431      Zr1105   2.368       .  S
O432      Zr1108   2.337       .  S
O432        H436   0.962   1_655  S
O433      Zr1105   2.367       .  S
O433        H438   0.965   1_655  S
O434      Zr1108   2.303       .  S
O451       Zr463   2.411       .  S
O451        C453   1.271       .  A
O452       Zr489   2.422       .  S
O452        C453   1.281       .  A
C453        C540   1.456       .  S
O454       Zr466   2.433       .  S
O454        C456   1.286       .  A
O455       Zr490   2.354       .  S
O455        C456   1.274       .  A
C456        C528   1.447       .  S
O457       Zr466   2.455       .  S
O457        C459   1.282       .  A
O458       Zr489   2.359       .  S
O458        C459   1.263       .  A
C459        C684   1.436       .  S
O460       Zr463   2.395       .  S
O460        C462   1.276       .  A
O461       Zr490   2.391       .  S
O461        C462   1.281       .  A
C462        C648   1.450       .  S
Zr463       O464   2.429       .  S
Zr463       O465   2.434       .  S
Zr463       O493   2.269       .  S
Zr463       O469   2.331       .  S
Zr463       O470   2.362       .  S
Zr463       O495   2.382       .  S
O464        H507   0.988       .  S
O465        H506   0.984       .  S
O465        H510   0.989       .  S
Zr466       O467   2.436       .  S
Zr466       O468   2.430       .  S
Zr466       O470   2.348       .  S
Zr466       O469   2.368       .  S
Zr466       O494   2.366       .  S
Zr466       O496   2.369       .  S
O467        H508   0.990       .  S
O467        H511   0.988       .  S
O468        H501   0.990       .  S
O469       Zr489   2.413       .  S
O470       Zr490   2.378       .  S
O470        H497   0.964       .  S
O471       Zr483   2.409       .  S
O471        C473   1.280       .  A
O472       Zr490   2.402       .  S
O472        C473   1.281       .  A
C473        C588   1.446       .  S
O474       Zr486   2.420       .  S
O474        C476   1.269       .  A
O475       Zr489   2.429       .  S
O475        C476   1.273       .  A
C476        C576   1.459       .  S
O477       Zr486   2.411       .  S
O477        C479   1.280       .  A
O478       Zr490   2.405       .  S
O478        C479   1.284       .  A
C479        C660   1.451       .  S
O480       Zr483   2.431       .  S
O480        C482   1.278       .  A
O481       Zr489   2.388       .  S
O481        C482   1.273       .  A
C482        C621   1.463       .  S
Zr483       O484   2.435       .  S
Zr483       O485   2.436       .  S
Zr483       O493   2.282       .  S
Zr483       O491   2.343       .  S
Zr483       O492   2.374       .  S
Zr483       O495   2.330       .  S
O484        H504   0.990       .  S
O484        H509   0.989       .  S
O485        H505   0.990       .  S
Zr486       O487   2.439       .  S
Zr486       O488   2.433       .  S
Zr486       O492   2.432       .  S
Zr486       O491   2.412       .  S
Zr486       O496   2.322       .  S
Zr486       O494   2.360       .  S
O487        H503   0.990       .  S
O488        H502   0.990       .  S
O488        H512   0.990       .  S
Zr489       O492   2.407       .  S
Zr489       O494   2.442       .  S
Zr489       O495   2.401       .  S
Zr490       O493   2.242       .  S
Zr490       O491   2.389       .  S
Zr490       O496   2.368       .  S
O491        H499   0.962       .  S
O494        H498   0.960       .  S
O495        H500   0.960       .  S
C513        C514   1.420       .  A
C513        C518   1.417       .  A
C514        C515   1.384       .  A
C514        H523   1.080       .  S
C515        C516   1.392       .  A
C515        S519   1.803       .  S
C516        C517   1.400       .  A
C517        C518   1.387       .  A
C517        H524   1.080       .  S
C518        S520   1.802       .  S
S519        H522   1.408   1_554  S
S520        H521   1.402       .  S
C525        C526   1.398       .  A
C525        C530   1.405       .  A
C526        C527   1.386       .  A
C526        H535   1.078       .  S
C527        C528   1.408       .  A
C527        S531   1.806       .  S
C528        C529   1.407       .  A
C529        C530   1.389       .  A
C529        H536   1.082       .  S
C530        S532   1.810       .  S
S531        H534   1.408       .  S
S532        H533   1.406       .  S
C537        C538   1.397       .  A
C537        C542   1.390       .  A
C538        C539   1.392       .  A
C538        H547   1.083       .  S
C539        C540   1.410       .  A
C539        S543   1.801       .  S
C540        C541   1.400       .  A
C541        C542   1.381       .  A
C541        H548   1.070       .  S
C542        S544   1.807       .  S
S543        H546   1.408       .  S
S544        H545   1.403       .  S
C549        C550   1.420       .  A
C549        C554   1.420       .  A
C550        C551   1.383       .  A
C550        H559   1.075       .  S
C551        C552   1.391       .  A
C551        S555   1.809       .  S
C552        C553   1.400       .  A
C553        C554   1.387       .  A
C553        H560   1.082       .  S
C554        S556   1.803       .  S
S555        H558   1.407       .  S
S556        H557   1.401       .  S
C561        C562   1.398       .  A
C561        C566   1.383       .  A
C562        C563   1.390       .  A
C562        H571   1.084       .  S
C563        C564   1.414       .  A
C563        S567   1.800       .  S
C564        C565   1.403       .  A
C565        C566   1.373       .  A
C565        H572   1.070       .  S
C566        S568   1.804       .  S
S567        H570   1.407       .  S
S568        H569   1.406       .  S
C573        C574   1.387       .  A
C573        C578   1.401       .  A
C574        C575   1.387       .  A
C574        H583   1.070       .  S
C575        C576   1.405       .  A
C575        S579   1.812       .  S
C576        C577   1.409       .  A
C577        C578   1.388       .  A
C577        H584   1.069       .  S
C578        S580   1.795       .  S
S579        H582   1.404       .  S
S580        H581   1.404       .  S
C585        C586   1.388       .  A
C585        C590   1.437       .  A
C586        C587   1.380       .  A
C586        H595   1.071       .  S
C587        C588   1.403       .  A
C587        S591   1.785       .  S
C588        C589   1.387       .  A
C589        C590   1.393       .  A
C589        H596   1.085       .  S
C590        S592   1.815       .  S
S591        H594   1.408       .  S
S592        H593   1.393       .  S
C597        C598   1.384       .  A
C597        C602   1.405       .  A
C598        C599   1.383       .  A
C598        H607   1.072       .  S
C599        C600   1.405       .  A
C599        S603   1.809       .  S
C600        C601   1.406       .  A
C601        C602   1.387       .  A
C601        H608   1.068       .  S
C602        S604   1.796       .  S
S603        H606   1.407       .  S
S604        H605   1.405       .  S
C609        C610   1.410       .  A
C609        C614   1.438       .  A
C610        C611   1.383       .  A
C610        H619   1.077       .  S
C611        C612   1.400       .  A
C611        S615   1.813       .  S
C612        C613   1.384       .  A
C613        C614   1.390       .  A
C613        H620   1.081       .  S
C614        S616   1.809       .  S
S615        H618   1.407       .  S
S616        H617   1.407       .  S
C621        C622   1.404       .  A
C621        C626   1.402       .  A
C622        C623   1.382       .  A
C622        H631   1.070       .  S
C623        C624   1.376       .  A
C623        S627   1.784       .  S
C624        C625   1.422       .  A
C625        C626   1.399       .  A
C625        H632   1.081       .  S
C626        S628   1.805       .  S
S627        H630   1.409       .  S
S628        H629   1.406       .  S
C633        C634   1.395       .  A
C633        C638   1.431       .  A
C634        C635   1.382       .  A
C634        H643   1.074       .  S
C635        C636   1.415       .  A
C635        S639   1.810       .  S
C636        C637   1.392       .  A
C637        C638   1.392       .  A
C637        H644   1.082   1_565  S
C638        S640   1.814       .  S
S639        H642   1.407       .  S
S640        H641   1.407       .  S
C645        C646   1.398       .  A
C645        C650   1.428       .  A
C646        C647   1.379       .  A
C646        H655   1.076       .  S
C647        C648   1.414       .  A
C647        S651   1.810       .  S
C648        C649   1.394       .  A
C649        C650   1.387       .  A
C649        H656   1.085       .  S
C650        S652   1.809       .  S
S651        H654   1.408       .  S
S652        H653   1.399       .  S
C657        C658   1.395       .  A
C657        C662   1.436       .  A
C658        C659   1.379       .  A
C658        H667   1.077       .  S
C659        C660   1.413       .  A
C659        S663   1.803       .  S
C660        C661   1.391       .  A
C661        C662   1.391       .  A
C661        H668   1.085       .  S
C662        S664   1.810       .  S
S663        H666   1.407       .  S
S664        H665   1.399       .  S
C669        C670   1.406       .  A
C669        C674   1.401       .  A
C670        C671   1.375       .  A
C670        H679   1.071       .  S
C671        C672   1.376       .  A
C671        S675   1.791       .  S
C672        C673   1.421       .  A
C673        C674   1.390       .  A
C673        H680   1.081       .  S
C674        S676   1.802       .  S
S675        H678   1.409       .  S
S676       H1381   1.407   1_554  S
H677       S1380   1.408       .  S
C681        C682   1.410       .  A
C681        C686   1.443       .  A
C682        C683   1.380       .  A
C682        H691   1.074       .  S
C683        C684   1.400       .  A
C683        S687   1.816       .  S
C684        C685   1.382       .  A
C685        C686   1.387       .  A
C685        H692   1.083       .  S
C686        S688   1.814       .  S
S687        H690   1.407       .  S
S688        H689   1.407       .  S
C693        C694   1.397       .  A
C693        C698   1.402       .  A
C694        C695   1.399       .  A
C694        H703   1.079       .  S
C695        C696   1.424       .  A
C695        S699   1.807       .  S
C696        C697   1.413       .  A
C697        C698   1.384       .  A
C697        H704   1.069       .  S
C698        S700   1.811       .  S
S699        H702   1.406       .  S
S700        H701   1.408       .  S
C705        C707   1.581       .  S
C705        C709   1.580       .  S
C705        C708   1.548       .  S
C705       C1400   1.518       .  S
C706        C710   1.557       .  S
C706        C712   1.579       .  S
C706        C711   1.553       .  S
C706       C1385   1.510       .  S
C707        C715   1.411       .  A
C707        C710   1.391       .  A
C708        C719   1.407       .  A
C708        C711   1.351       .  A
C709        C723   1.410       .  A
C709        C712   1.387       .  A
C710        C713   1.397       .  A
C711        C717   1.407       .  A
C712        C720   1.416       .  A
C713        N714   1.364       .  A
C713        H726   1.082       .  S
N714        C715   1.379       .  A
N714        C748   1.488       .  S
C715        H716   1.082       .  S
C717        N718   1.359       .  A
C717        H727   1.076       .  S
N718        C719   1.370       .  A
N718        C808   1.482       .  S
C719        H725   1.082       .  S
C720        N721   1.374       .  A
C720        H722   1.082       .  S
N721        C723   1.368       .  A
N721        C989   1.492       .  S
C723        H724   1.082       .  S
N728        C733   1.365       .  A
N728        C732   1.372       .  A
N728        H760   1.040       .  S
N729        C736   1.366   1_655  A
N729        C737   1.362       .  A
N730        C735   1.373       .  A
N730        C734   1.366       .  A
N730        H761   1.041       .  S
N731        C738   1.365   1_655  A
N731        C739   1.369       .  A
C732        C740   1.385       .  A
C732        C748   1.443       .  A
C733        C749   1.444       .  A
C733        C741   1.388       .  A
C734        C742   1.389       .  A
C734        C751   1.447       .  A
C735        C750   1.445       .  A
C735        C743   1.385       .  A
C736        C748   1.431       .  A
C736        C744   1.382       .  A
C737        C751   1.433       .  A
C737        C745   1.387       .  A
C738        C746   1.386       .  A
C738        C749   1.438       .  A
C739        C747   1.385       .  A
C739        C750   1.441       .  A
C740        C741   1.386       .  A
C740        H752   1.082       .  S
C741        H753   1.080       .  S
C742        C743   1.386       .  A
C742        H754   1.082       .  S
C743        H755   1.082       .  S
C744        C745   1.376   1_455  A
C744        H756   1.079       .  S
C745        H757   1.082       .  S
C746        C747   1.381   1_455  A
C746        H758   1.082       .  S
C747        H759   1.082       .  S
C749       N1079   1.475       .  S
C750        N771   1.494       .  S
C751       N1033   1.476       .  S
C762        C764   1.576       .  S
C762        C766   1.552       .  S
C762        C765   1.583       .  S
C762       C1376   1.524       .  S
C763        C767   1.582       .  S
C763        C769   1.543       .  S
C763        C768   1.569       .  S
C763       C1361   1.514       .  S
C764        C772   1.406       .  A
C764        C767   1.390       .  A
C765        C776   1.417       .  A
C765        C768   1.393       .  A
C766        C780   1.406       .  A
C766        C769   1.352       .  A
C767        C770   1.416       .  A
C768        C774   1.404       .  A
C769        C777   1.404       .  A
C770        N771   1.377       .  A
C770        H783   1.082       .  S
N771        C772   1.368       .  A
C772        H773   1.082       .  S
C774        N775   1.368       .  A
C774        H784   1.082       .  S
N775        C776   1.377       .  A
N775        C840   1.493       .  S
C776        H782   1.082       .  S
C777        N778   1.366       .  A
C777        H779   1.082       .  S
N778        C780   1.360       .  A
N778        C955   1.477       .  S
C780        H781   1.078       .  S
N785        C790   1.364       .  A
N785        C789   1.369       .  A
N785        H817   1.040       .  S
N786        C793   1.369   1_545  A
N786        C794   1.364       .  A
N787        C792   1.375       .  A
N787        C791   1.370       .  A
N787        H818   1.039       .  S
N788        C795   1.362   1_545  A
N788        C796   1.367       .  A
C789        C797   1.387       .  A
C789        C805   1.443       .  A
C790        C806   1.438       .  A
C790        C798   1.386       .  A
C791        C799   1.390       .  A
C791        C808   1.455       .  A
C792        C807   1.452       .  A
C792        C800   1.385       .  A
C793        C805   1.434       .  A
C793        C801   1.382       .  A
C794        C808   1.437       .  A
C794        C802   1.388       .  A
C795        C803   1.387       .  A
C795        C806   1.436       .  A
C796        C804   1.382       .  A
C796        C807   1.429       .  A
C797        C798   1.386       .  A
C797        H809   1.082       .  S
C798        H810   1.082       .  S
C799        C800   1.391       .  A
C799        H811   1.082       .  S
C800        H812   1.081       .  S
C801        C802   1.376   1_565  A
C801        H813   1.080       .  S
C802        H814   1.082       .  S
C803        C804   1.376   1_565  A
C803        H815   1.079       .  S
C804        H816   1.082       .  S
C805       N1083   1.488       .  S
C806        N866   1.471       .  S
C807       N1060   1.490       .  S
N819        C824   1.373   1_545  A
N819        C823   1.366       .  A
N819        H851   1.041       .  S
N820        C827   1.376       .  A
N820        C828   1.378       .  A
N821        C826   1.371   1_545  A
N821        C825   1.374       .  A
N821        H852   1.041       .  S
N822        C829   1.372       .  A
N822        C830   1.367       .  A
C823        C831   1.390       .  A
C823        C839   1.446       .  A
C824        C840   1.441       .  A
C824        C832   1.383   1_565  A
C825        C833   1.385       .  A
C825        C842   1.448       .  A
C826        C841   1.453       .  A
C826        C834   1.390   1_565  A
C827        C839   1.457       .  A
C827        C835   1.386       .  A
C828        C842   1.463       .  A
C828        C836   1.389       .  A
C829        C837   1.382       .  A
C829        C840   1.440       .  A
C830        C838   1.383       .  A
C830        C841   1.444       .  A
C831        C832   1.383       .  A
C831        H843   1.082       .  S
C832        H844   1.081   1_545  S
C833        C834   1.385       .  A
C833        H845   1.082       .  S
C834        H846   1.082   1_545  S
C835        C836   1.389       .  A
C835        H847   1.081       .  S
C836        H848   1.081       .  S
C837        C838   1.378       .  A
C837        H849   1.082       .  S
C838        H850   1.074       .  S
C839       N1040   1.491       .  S
C841       N1017   1.491       .  S
C842        N926   1.506       .  S
C853        C855   1.580       .  S
C853        C857   1.538       .  S
C853        C856   1.550       .  S
C853       C1337   1.499       .  S
C854        C858   1.562       .  S
C854        C860   1.540       .  S
C854        C859   1.551       .  S
C854       C1349   1.495       .  S
C855        C863   1.405       .  A
C855        C858   1.393       .  A
C856        C867   1.390       .  A
C856        C859   1.377       .  A
C857        C871   1.398       .  A
C857        C860   1.364       .  A
C858        C861   1.398       .  A
C859        C865   1.402       .  A
C860        C868   1.387       .  A
C861        N862   1.363       .  A
C861        H874   1.082       .  S
N862        C863   1.364       .  A
N862        C897   1.474       .  S
C863        H864   1.075       .  S
C865        N866   1.368       .  A
C865        H875   1.082       .  S
N866        C867   1.363       .  A
C867        H873   1.082       .  S
C868        N869   1.362       .  A
C868        H870   1.082       .  S
N869        C871   1.369       .  A
N869        C953   1.469       .  S
C871        H872   1.082       .  S
N876        C881   1.365       .  A
N876        C880   1.368       .  A
N876        H908   1.041       .  S
N877        C884   1.362       .  A
N877        C885   1.362   1_455  A
N878        C883   1.366       .  A
N878        C882   1.365       .  A
N878        H909   1.040       .  S
N879        C886   1.363       .  A
N879        C887   1.366   1_455  A
C880        C888   1.386       .  A
C880        C896   1.439       .  A
C881        C897   1.439       .  A
C881        C889   1.388       .  A
C882        C890   1.388       .  A
C882        C899   1.438       .  A
C883        C898   1.435       .  A
C883        C891   1.385       .  A
C884        C896   1.429       .  A
C884        C892   1.385       .  A
C885        C899   1.429       .  A
C885        C893   1.385       .  A
C886        C894   1.388       .  A
C886        C897   1.437       .  A
C887        C895   1.384       .  A
C887        C898   1.434       .  A
C888        C889   1.384       .  A
C888        H900   1.082       .  S
C889        H901   1.082       .  S
C890        C891   1.382       .  A
C890        H902   1.082       .  S
C891        H903   1.082       .  S
C892        C893   1.376   1_455  A
C892        H904   1.082       .  S
C893        H905   1.082       .  S
C894        C895   1.379   1_455  A
C894        H906   1.082       .  S
C895        H907   1.082       .  S
C896       N1056   1.476       .  S
C898       N1010   1.478       .  S
C899        N919   1.472       .  S
C910        C912   1.545       .  S
C910        C914   1.563       .  S
C910        C913   1.591       .  S
C910       C1328   1.496       .  S
C911        C915   1.551       .  S
C911        C917   1.594       .  S
C911        C916   1.567       .  S
C911       C1313   1.506       .  S
C912        C920   1.393       .  A
C912        C915   1.366       .  A
C913        C924   1.432       .  A
C913        C916   1.379       .  A
C914        C928   1.404       .  A
C914        C917   1.377       .  A
C915        C918   1.402       .  A
C916        C922   1.407       .  A
C917        C925   1.430       .  A
C918        N919   1.369       .  A
C918        H931   1.082       .  S
N919        C920   1.360       .  A
C920        H921   1.082       .  S
C922        N923   1.358       .  A
C922        H932   1.079       .  S
N923        C924   1.381       .  A
N923        C987   1.501       .  S
C924        H930   1.072       .  S
C925        N926   1.388       .  A
C925        H927   1.082       .  S
N926        C928   1.365       .  A
C928        H929   1.080       .  S
N933        C938   1.366       .  A
N933        C937   1.362       .  A
N933        H965   1.041       .  S
N934        C941   1.363       .  A
N935        C940   1.363       .  A
N935        C939   1.366       .  A
N935        H966   1.041       .  S
N936        C943   1.375       .  A
C937        C945   1.389       .  A
C937        C953   1.435       .  A
C938        C954   1.429       .  A
C938        C946   1.384       .  A
C939        C947   1.384       .  A
C939        C956   1.432       .  A
C940        C955   1.435       .  A
C940        C948   1.388       .  A
C941        C953   1.434       .  A
C941        C949   1.385       .  A
C942        C956   1.439       .  A
C942        C950   1.387       .  A
C943        C951   1.387       .  A
C943        C954   1.457       .  A
C944        C952   1.387       .  A
C944        C955   1.443       .  A
C945        C946   1.378       .  A
C945        H957   1.082       .  S
C946        H958   1.082       .  S
C947        C948   1.380       .  A
C947        H959   1.082       .  S
C948        H960   1.082       .  S
C949        H961   1.082       .  S
C950        H962   1.081       .  S
C951        H963   1.082       .  S
C952        H964   1.082       .  S
C954       N1014   1.491       .  S
C956       N1086   1.481       .  S
N967        C971   1.379   1_554  A
N967        H999   1.040       .  S
N968        C975   1.370       .  A
N968        C976   1.369       .  A
N969        C973   1.368   1_554  A
N969       H1000   1.041       .  S
N970        C977   1.369       .  A
N970        C978   1.372       .  A
C971        C979   1.389       .  A
C971        C987   1.464       .  A
C972        C988   1.444       .  A
C972        C980   1.385       .  A
C973        C981   1.386       .  A
C973        C990   1.440       .  A
C974        C989   1.444       .  A
C974        C982   1.387       .  A
C975        C987   1.444       .  A
C975        C983   1.385       .  A
C976        C990   1.446       .  A
C976        C984   1.387       .  A
C977        C985   1.388       .  A
C977        C988   1.449       .  A
C978        C986   1.384       .  A
C978        C989   1.445       .  A
C979        H991   1.082       .  S
C980        H992   1.081       .  S
C981        H993   1.082       .  S
C982        H994   1.082       .  S
C983        C984   1.381       .  A
C983        H995   1.082       .  S
C984        H996   1.082       .  S
C985        C986   1.382       .  A
C985        H997   1.082       .  S
C986        H998   1.082       .  S
C988       N1037   1.486       .  S
C990       N1063   1.487       .  S
C1001      C1003   1.547       .  S
C1001      C1005   1.575       .  S
C1001      C1004   1.579       .  S
C1001      C1301   1.512       .  S
C1002      C1006   1.548       .  S
C1002      C1008   1.556       .  S
C1002      C1007   1.593       .  S
C1002      C1289   1.498       .  S
C1003      C1011   1.404       .  A
C1003      C1006   1.370       .  A
C1004      C1015   1.403       .  A
C1004      C1007   1.392       .  A
C1005      C1019   1.411       .  A
C1005      C1008   1.367       .  A
C1006      C1009   1.395       .  A
C1007      C1013   1.428       .  A
C1008      C1016   1.410       .  A
C1009      N1010   1.366       .  A
C1009      H1022   1.082       .  S
N1010      C1011   1.372       .  A
C1011      H1012   1.082       .  S
C1013      N1014   1.378       .  A
C1013      H1023   1.080       .  S
N1014      C1015   1.348       .  A
C1015      H1021   1.060       .  S
C1016      N1017   1.371       .  A
C1016      H1018   1.082       .  S
N1017      C1019   1.362       .  A
C1019      H1020   1.075       .  S
C1024      C1026   1.552       .  S
C1024      C1028   1.575       .  S
C1024      C1027   1.593       .  S
C1024      C1265   1.509       .  S
C1025      C1029   1.526       .  S
C1025      C1031   1.586       .  S
C1025      C1030   1.562       .  S
C1025      C1277   1.497       .  S
C1026      C1034   1.399       .  A
C1026      C1029   1.367       .  A
C1027      C1038   1.428       .  A
C1027      C1030   1.375       .  A
C1028      C1042   1.409       .  A
C1028      C1031   1.380       .  A
C1029      C1032   1.387       .  A
C1030      C1036   1.402       .  A
C1031      C1039   1.423       .  A
C1032      N1033   1.362       .  A
C1032      H1045   1.082       .  S
N1033      C1034   1.375       .  A
C1034      H1035   1.082       .  S
C1036      N1037   1.349       .  A
C1036      H1046   1.064       .  S
N1037      C1038   1.370       .  A
C1038      H1044   1.079       .  S
C1039      N1040   1.370       .  A
C1039      H1041   1.078       .  S
N1040      C1042   1.362       .  A
C1042      H1043   1.076       .  S
C1047      C1049   1.534       .  S
C1047      C1051   1.570       .  S
C1047      C1050   1.577       .  S
C1047      C1241   1.497       .  S
C1048      C1052   1.564       .  S
C1048      C1054   1.554       .  S
C1048      C1053   1.581       .  S
C1048      C1253   1.499       .  S
C1049      C1057   1.396       .  A
C1049      C1052   1.370       .  A
C1050      C1061   1.409       .  A
C1050      C1053   1.388       .  A
C1051      C1065   1.407       .  A
C1051      C1054   1.362       .  A
C1052      C1055   1.400       .  A
C1053      C1059   1.417       .  A
C1054      C1062   1.410       .  A
C1055      N1056   1.369       .  A
C1055      H1068   1.082       .  S
N1056      C1057   1.365       .  A
C1057      H1058   1.082       .  S
C1059      N1060   1.378       .  A
C1059      H1069   1.082       .  S
N1060      C1061   1.361       .  A
C1061      H1067   1.079       .  S
C1062      N1063   1.368       .  A
C1062      H1064   1.082       .  S
N1063      C1065   1.361       .  A
C1065      H1066   1.064       .  S
C1070      C1072   1.559       .  S
C1070      C1074   1.555       .  S
C1070      C1073   1.576       .  S
C1070      C1229   1.520       .  S
C1071      C1075   1.564       .  S
C1071      C1077   1.545       .  S
C1071      C1076   1.578       .  S
C1071      C1217   1.525       .  S
C1072      C1080   1.402       .  A
C1072      C1075   1.380       .  A
C1073      C1084   1.405       .  A
C1073      C1076   1.396       .  A
C1074      C1088   1.406       .  A
C1074      C1077   1.372       .  A
C1075      C1078   1.403       .  A
C1076      C1082   1.413       .  A
C1077      C1085   1.393       .  A
C1078      N1079   1.366       .  A
C1078      H1091   1.082       .  S
N1079      C1080   1.364       .  A
C1080      H1081   1.081       .  S
C1082      N1083   1.375       .  A
C1082      H1092   1.081       .  S
N1083      C1084   1.362       .  A
C1084      H1090   1.078       .  S
C1085      N1086   1.363       .  A
C1085      H1087   1.082       .  S
N1086      C1088   1.375       .  A
C1088      H1089   1.082       .  S
O1093     Zr1105   2.431   1_455  S
O1093      C1095   1.285       .  A
O1094      C1095   1.276       .  A
C1095      C1397   1.462       .  S
O1096     Zr1108   2.431       .  S
O1096      C1098   1.278       .  A
O1097      C1098   1.272       .  A
C1098      C1373   1.473       .  S
O1099     Zr1108   2.443   1_455  S
O1099      C1101   1.285       .  A
O1100      C1101   1.277       .  A
C1101      C1220   1.465       .  S
O1102     Zr1105   2.424       .  S
O1102      C1104   1.273       .  A
O1103      C1104   1.279       .  A
C1104      C1268   1.467       .  S
Zr1105     O1106   2.435   1_545  S
Zr1105     O1107   2.437       .  S
Zr1105     O1111   2.273   1_545  S
Zr1105     O1112   2.386   1_545  S
O1106      H1149   0.990       .  S
O1107      H1148   0.988       .  S
O1107      H1152   0.987       .  S
Zr1108     O1109   2.433       .  S
Zr1108     O1110   2.437       .  S
Zr1108     O1111   2.274       .  S
Zr1108     O1112   2.353       .  S
O1109      H1150   0.990       .  S
O1109      H1153   0.990       .  S
O1110      H1143   0.990       .  S
O1112      H1139   0.959       .  S
O1113     Zr1125   2.449   1_554  S
O1113      C1115   1.282   1_554  A
O1114     Zr1132   2.361   1_556  S
O1114      C1115   1.262       .  A
C1115      C1316   1.454       .  S
O1116     Zr1128   2.414   1_465  S
O1116      C1118   1.281       .  A
O1117     Zr1131   2.392       .  S
O1117      C1118   1.278   1_545  A
C1118      C1340   1.450       .  S
O1119     Zr1128   2.405       .  S
O1119      C1121   1.265       .  A
O1120     Zr1132   2.409   1_556  S
O1120      C1121   1.278       .  A
C1121      C1304   1.455   1_545  S
O1122     Zr1125   2.408   1_455  S
O1122      C1124   1.281       .  A
O1123     Zr1131   2.343       .  S
O1123      C1124   1.269       .  A
C1124      C1256   1.436       .  S
Zr1125     O1126   2.432       .  S
Zr1125     O1127   2.434   1_556  S
Zr1125     O1133   2.338       .  S
Zr1125     O1134   2.391   1_655  S
Zr1125     O1137   2.366   1_656  S
Zr1125     O1135   2.369   1_556  S
O1126      H1146   0.990       .  S
O1126      H1151   0.990       .  S
O1127      H1147   0.990       .  S
Zr1128     O1129   2.435       .  S
Zr1128     O1130   2.417   1_545  S
Zr1128     O1134   2.365   1_655  S
Zr1128     O1133   2.382       .  S
Zr1128     O1138   2.373   1_545  S
Zr1128     O1136   2.371   1_645  S
O1129      H1145   0.990       .  S
O1130      H1144   0.987       .  S
O1130      H1154   0.987       .  S
Zr1131     O1134   2.360       .  S
Zr1131     O1136   2.336   1_545  S
Zr1131     O1137   2.381   1_556  S
Zr1132     O1133   2.423   1_554  S
Zr1132     O1135   2.413       .  S
Zr1132     O1138   2.396   1_544  S
O1133      H1141   0.959       .  S
O1136      H1140   0.957       .  S
O1137      H1142   0.965       .  S
O1155     Zr1167   2.415       .  S
O1155      C1157   1.268       .  A
O1156     Zr1193   2.409       .  S
O1156      C1157   1.277       .  A
C1157      C1244   1.440       .  S
O1158     Zr1170   2.439       .  S
O1158      C1160   1.288       .  A
O1159     Zr1194   2.364       .  S
O1159      C1160   1.276       .  A
C1160      C1232   1.458       .  S
O1161     Zr1170   2.442       .  S
O1161      C1163   1.279       .  A
O1162     Zr1193   2.382       .  S
O1162      C1163   1.267       .  A
C1163      C1388   1.454       .  S
O1164     Zr1167   2.406       .  S
O1164      C1166   1.278       .  A
O1165     Zr1194   2.377       .  S
O1165      C1166   1.280       .  A
C1166      C1352   1.448       .  S
Zr1167     O1168   2.431       .  S
Zr1167     O1169   2.433       .  S
Zr1167     O1197   2.268       .  S
Zr1167     O1173   2.347       .  S
Zr1167     O1174   2.369       .  S
Zr1167     O1199   2.384       .  S
O1168      H1211   0.988       .  S
O1169      H1210   0.984       .  S
O1169      H1214   0.988       .  S
Zr1170     O1171   2.434       .  S
Zr1170     O1172   2.431       .  S
Zr1170     O1174   2.342       .  S
Zr1170     O1173   2.385       .  S
Zr1170     O1198   2.343       .  S
Zr1170     O1200   2.364       .  S
O1171      H1212   0.990       .  S
O1171      H1215   0.990       .  S
O1172      H1205   0.990       .  S
O1173     Zr1193   2.422       .  S
O1174     Zr1194   2.372       .  S
O1174      H1201   0.965       .  S
O1175     Zr1187   2.404       .  S
O1175      C1177   1.275       .  A
O1176     Zr1194   2.388       .  S
O1176      C1177   1.277       .  A
C1177      C1292   1.440       .  S
O1178     Zr1190   2.430       .  S
O1178      C1180   1.265       .  A
O1179     Zr1193   2.406       .  S
O1179      C1180   1.275       .  A
C1180      C1280   1.435       .  S
O1181     Zr1190   2.440       .  S
O1181      C1183   1.286       .  A
O1182     Zr1194   2.378       .  S
O1182      C1183   1.282       .  A
C1183      C1364   1.462       .  S
O1184     Zr1187   2.415       .  S
O1184      C1186   1.275       .  A
O1185     Zr1193   2.414       .  S
O1185      C1186   1.278       .  A
C1186      C1325   1.468       .  S
Zr1187     O1188   2.438       .  S
Zr1187     O1189   2.438       .  S
Zr1187     O1197   2.281       .  S
Zr1187     O1195   2.345       .  S
Zr1187     O1196   2.372       .  S
Zr1187     O1199   2.337       .  S
O1188      H1208   0.990       .  S
O1188      H1213   0.990       .  S
O1189      H1209   0.989       .  S
Zr1190     O1191   2.424       .  S
Zr1190     O1192   2.439       .  S
Zr1190     O1196   2.392       .  S
Zr1190     O1195   2.379       .  S
Zr1190     O1200   2.348       .  S
Zr1190     O1198   2.389       .  S
O1191      H1207   0.989       .  S
O1192      H1206   0.989       .  S
O1192      H1216   0.990       .  S
Zr1193     O1196   2.413       .  S
Zr1193     O1198   2.444       .  S
Zr1193     O1199   2.417       .  S
Zr1194     O1197   2.240       .  S
Zr1194     O1195   2.379       .  S
Zr1194     O1200   2.351       .  S
O1195      H1203   0.965       .  S
O1198      H1202   0.959       .  S
O1199      H1204   0.956       .  S
C1217      C1218   1.420       .  A
C1217      C1222   1.419       .  A
C1218      C1219   1.391       .  A
C1218      H1227   1.079       .  S
C1219      C1220   1.399       .  A
C1219      S1223   1.804       .  S
C1220      C1221   1.401       .  A
C1221      C1222   1.393       .  A
C1221      H1228   1.077       .  S
C1222      S1224   1.801       .  S
S1223      H1226   1.407       .  S
S1224      H1225   1.402       .  S
C1229      C1230   1.402       .  A
C1229      C1234   1.419       .  A
C1230      C1231   1.391       .  A
C1230      H1239   1.078       .  S
C1231      C1232   1.409       .  A
C1231      S1235   1.806       .  S
C1232      C1233   1.402       .  A
C1233      C1234   1.390       .  A
C1233      H1240   1.085       .  S
C1234      S1236   1.811       .  S
S1235      H1238   1.408       .  S
S1236      H1237   1.393       .  S
C1241      C1242   1.396       .  A
C1241      C1246   1.389       .  A
C1242      C1243   1.386       .  A
C1242      H1251   1.084       .  S
C1243      C1244   1.408       .  A
C1243      S1247   1.802       .  S
C1244      C1245   1.400       .  A
C1245      C1246   1.377       .  A
C1245      H1252   1.072       .  S
C1246      S1248   1.806       .  S
S1247      H1250   1.408       .  S
S1248      H1249   1.402       .  S
C1253      C1254   1.418       .  A
C1253      C1258   1.417       .  A
C1254      C1255   1.382       .  A
C1254      H1263   1.076       .  S
C1255      C1256   1.391       .  A
C1255      S1259   1.810       .  S
C1256      C1257   1.400       .  A
C1257      C1258   1.386       .  A
C1257      H1264   1.084       .  S
C1258      S1260   1.805       .  S
S1259      H1262   1.407       .  S
S1260      H1261   1.408       .  S
C1265      C1266   1.401       .  A
C1265      C1270   1.385       .  A
C1266      C1267   1.402       .  A
C1266      H1275   1.081       .  S
C1267      C1268   1.411       .  A
C1267      S1271   1.807       .  S
C1268      C1269   1.401       .  A
C1269      C1270   1.381       .  A
C1269      H1276   1.069       .  S
C1270      S1272   1.809       .  S
S1271      H1274   1.407       .  S
S1272      H1273   1.400       .  S
C1277      C1278   1.393       .  A
C1277      C1282   1.375       .  A
C1278      C1279   1.390       .  A
C1278      H1287   1.083       .  S
C1279      C1280   1.411       .  A
C1279      S1283   1.809       .  S
C1280      C1281   1.404       .  A
C1281      C1282   1.380       .  A
C1281      H1288   1.072       .  S
C1282      S1284   1.793       .  S
S1283      H1286   1.408       .  S
S1284      H1285   1.404       .  S
C1289      C1290   1.391       .  A
C1289      C1294   1.436       .  A
C1290      C1291   1.383       .  A
C1290      H1299   1.073       .  S
C1291      C1292   1.404       .  A
C1291      S1295   1.794       .  S
C1292      C1293   1.384       .  A
C1293      C1294   1.388       .  A
C1293      H1300   1.085       .  S
C1294      S1296   1.815       .  S
S1295      H1298   1.407       .  S
S1296      H1297   1.393       .  S
C1301      C1302   1.391       .  A
C1301      C1306   1.405       .  A
C1302      C1303   1.389       .  A
C1302      H1311   1.080       .  S
C1303      C1304   1.406       .  A
C1303      S1307   1.809       .  S
C1304      C1305   1.408       .  A
C1305      C1306   1.391       .  A
C1305      H1312   1.083       .  S
C1306      S1308   1.809       .  S
S1307      H1310   1.408       .  S
S1308      H1309   1.400       .  S
C1313      C1314   1.404       .  A
C1313      C1318   1.444       .  A
C1314      C1315   1.388       .  A
C1314      H1323   1.078       .  S
C1315      C1316   1.409       .  A
C1315      S1319   1.810       .  S
C1316      C1317   1.382       .  A
C1317      C1318   1.387       .  A
C1317      H1324   1.083       .  S
C1318      S1320   1.814       .  S
S1319      H1322   1.407       .  S
S1320      H1321   1.407       .  S
C1325      C1326   1.406       .  A
C1325      C1330   1.409       .  A
C1326      C1327   1.382       .  A
C1326      H1335   1.069       .  S
C1327      C1328   1.373       .  A
C1327      S1331   1.781       .  S
C1328      C1329   1.416       .  A
C1329      C1330   1.389       .  A
C1329      H1336   1.079       .  S
C1330      S1332   1.797       .  S
S1331      H1334   1.409       .  S
S1332      H1333   1.407       .  S
C1337      C1338   1.377       .  A
C1337      C1342   1.421       .  A
C1338      C1339   1.373       .  A
C1338      H1347   1.068       .  S
C1339      C1340   1.415       .  A
C1339      S1343   1.795       .  S
C1340      C1341   1.399       .  A
C1341      C1342   1.398       .  A
C1341      H1348   1.082   1_565  S
C1342      S1344   1.809       .  S
S1343      H1346   1.408       .  S
S1344      H1345   1.404       .  S
C1349      C1350   1.402       .  A
C1349      C1354   1.425       .  A
C1350      C1351   1.379       .  A
C1350      H1359   1.078       .  S
C1351      C1352   1.411       .  A
C1351      S1355   1.810       .  S
C1352      C1353   1.395       .  A
C1353      C1354   1.386       .  A
C1353      H1360   1.085       .  S
C1354      S1356   1.806       .  S
S1355      H1358   1.407       .  S
S1356      H1357   1.402       .  S
C1361      C1362   1.409       .  A
C1361      C1366   1.434       .  A
C1362      C1363   1.391       .  A
C1362      H1371   1.078       .  S
C1363      C1364   1.406       .  A
C1363      S1367   1.807       .  S
C1364      C1365   1.395       .  A
C1365      C1366   1.391       .  A
C1365      H1372   1.085       .  S
C1366      S1368   1.805       .  S
S1367      H1370   1.406       .  S
S1368      H1369   1.402       .  S
C1373      C1374   1.399       .  A
C1373      C1378   1.394       .  A
C1374      C1375   1.394       .  A
C1374      H1383   1.074       .  S
C1375      C1376   1.427       .  A
C1375      S1379   1.810       .  S
C1376      C1377   1.423       .  A
C1377      C1378   1.391       .  A
C1377      H1384   1.070       .  S
C1378      S1380   1.806       .  S
S1379      H1382   1.406       .  S
C1385      C1386   1.411       .  A
C1385      C1390   1.440       .  A
C1386      C1387   1.386       .  A
C1386      H1395   1.074       .  S
C1387      C1388   1.403       .  A
C1387      S1391   1.811       .  S
C1388      C1389   1.387       .  A
C1389      C1390   1.392       .  A
C1389      H1396   1.083       .  S
C1390      S1392   1.810       .  S
S1391      H1394   1.407       .  S
S1392      H1393   1.407       .  S
C1397      C1398   1.401       .  A
C1397      C1402   1.405       .  A
C1398      C1399   1.396       .  A
C1398      H1407   1.080       .  S
C1399      C1400   1.422       .  A
C1399      S1403   1.807       .  S
C1400      C1401   1.412       .  A
C1401      C1402   1.386       .  A
C1401      H1408   1.070       .  S
C1402      S1404   1.810       .  S
S1403      H1406   1.407       .  S
S1404      H1405   1.407       .  S
