geometry optimzed in LAMMPS
_audit_creation_date              2020-12-01 
_audit_creation_method            'lammps2cif' 
_symmetry_space_group_name_H-M    'P1' 
_symmetry_Int_Tables_number       1 
_symmetry_cell_setting            triclinic 
loop_ 
_symmetry_equiv_pos_as_xyz 
  x,y,z 
_cell_length_a                    24.61951623 
_cell_length_b                    25.90166443984637 
_cell_length_c                    25.40841025316823 
_cell_angle_alpha                 78.65036033994964 
_cell_angle_beta                  96.2837057845651 
_cell_angle_gamma                 95.17490247853827 
loop_ 
_atom_site_label 
_atom_site_type_symbol 
_atom_site_fract_x 
_atom_site_fract_y 
_atom_site_fract_z 
_atom_site_charge 
N1          N  0.93741151  0.04512622  0.50699694    -0.36800
N2          N  0.04415587  0.06783099  0.47261265    -0.57400
N3          N  0.05513586  0.95243261  0.48534965    -0.36800
N4          N  0.94783694  0.93045543  0.51447836    -0.57400
C5          C  0.93706511  0.09796458  0.48904301     0.26700
C6          C  0.88480401  0.02554767  0.50649205     0.26700
C7          C  0.09956073  0.97334547  0.46015692     0.26700
C8          C  0.04817972  0.90073161  0.48144608     0.26700
C9          C  0.03601003  0.11551587  0.48330608     0.35400
C10         C  0.09866665  0.06655203  0.47268877     0.35400
C11         C  0.90042999  0.92983955  0.53619609     0.35400
C12         C  0.96343858  0.88053870  0.52693003     0.35400
C13         C  0.88366034  0.11235673  0.47789644    -0.22100
C14         C  0.85052923  0.06654318  0.48864028    -0.22100
C15         C  0.12167310  0.93454960  0.44008130    -0.22100
C16         C  0.08877214  0.88876087  0.45298616    -0.22100
C17         C  0.08525598  0.14502449  0.48903869    -0.23200
C18         C  0.12510930  0.11398739  0.48219316    -0.23200
C19         C  0.88549334  0.87927818  0.56270682    -0.23200
C20         C  0.92580922  0.84797757  0.55715511    -0.23200
C21         C  0.98407057  0.13337947  0.48495047    -0.18500
C22         C  0.86696553  0.97241257  0.52566415    -0.18500
C23         C  0.00859343  0.86376189  0.50679123    -0.18500
C24         C  0.12500032  0.02393708  0.46260975    -0.18500
H25         H  0.87007399  0.15169211  0.46352818     0.14400
H26         H  0.80619143  0.06388838  0.48463360     0.14400
H27         H  0.15864010  0.93847873  0.41973883     0.14400
H28         H  0.09519410  0.85067963  0.44415900     0.14400
H29         H  0.09178935  0.18463270  0.49735262     0.12700
H30         H  0.16861843  0.12513492  0.48401740     0.12700
H31         H  0.84872560  0.86615928  0.58275829     0.12700
H32         H  0.92658982  0.80595657  0.57238814     0.12700
H33         H  0.97112611  0.02428184  0.52435282     0.25900
H34         H  0.03651351  0.97091103  0.51068189     0.25900
O35         O  0.05484615  0.62536032  0.48907364    -0.81100
O36         O  0.01741369  0.38799772  0.47807923    -0.65800
O37         O  0.99599084  0.53495299  0.46110559    -1.12400
C38         C  0.96397376  0.48589068  0.64555424     1.05800
O39         O  0.93888921  0.37001439  0.51457253    -0.79000
O40         O  0.87962256  0.43925637  0.54760692    -0.66600
Ni41       Ni  0.04756760  0.58806322  0.42954820     1.34900
C42         C  0.86760868  0.48615137  0.52714572     0.84500
O43         O  0.01872697  0.46888925  0.39340310    -0.79600
O44         O  0.04221648  0.55558000  0.36735924    -0.89800
C45         C  0.97874944  0.35494607  0.49491967     0.84100
O46         O  0.11434882  0.55574737  0.45703176    -0.68000
O47         O  0.95327837  0.43912212  0.63642990    -0.87300
C48         C  0.12658527  0.50877123  0.47650331     0.84900
C49         C  0.03042512  0.50906979  0.35757936     1.06500
H50         H  0.03304423  0.45447908  0.56333565     0.38300
O51         O  0.99842710  0.45964922  0.54174837    -1.10000
O52         O  0.90462556  0.52387368  0.51773277    -0.66600
Ni53       Ni  0.98415460  0.53195571  0.53442933     1.26300
O54         O  0.08973699  0.47052943  0.48440711    -0.66900
O55         O  0.97460817  0.52582261  0.60893455    -0.79200
C56         C  0.01406717  0.63970814  0.50787083     0.84300
O57         O  0.97549771  0.60618826  0.52371507    -0.66300
Ni58       Ni  0.94693964  0.40688861  0.57408028     1.27400
Ni59       Ni  0.00985176  0.46254858  0.46811740     1.26100
H60         H  0.96151528  0.54033448  0.43934453     0.38800
O61         O  0.37295431  0.01245710  0.43865866    -0.81100
O62         O  0.60382441  0.95412096  0.48570945    -0.65800
O63         O  0.45620823  0.96599752  0.50393056    -1.12400
C64         C  0.52337298  0.14212348  0.51352719     1.05800
O65         O  0.62073589  0.98488602  0.56080405    -0.79000
O66         O  0.56325895  0.04285316  0.60863980    -0.66600
Ni67       Ni  0.39894901  0.94305423  0.45641620     1.34900
C68         C  0.51557390  0.02867226  0.62297123     0.84500
O69         O  0.51569532  0.88562658  0.49040993    -0.79600
O70         O  0.42415639  0.87296063  0.47374948    -0.89800
C71         C  0.63681369  0.96292919  0.52534544     0.84100
O72         O  0.43155904  0.95582004  0.38957902    -0.68000
O73         O  0.57116788  0.12467646  0.52341883    -0.87300
C74         C  0.47971382  0.96835637  0.37580405     0.84900
C75         C  0.47194939  0.85574928  0.48574053     1.06500
H76         H  0.54330458  0.05187414  0.45876974     0.38300
O77         O  0.53796279  0.03205854  0.49445109    -1.10000
O78         O  0.47512408  0.02184554  0.58800384    -0.66600
Ni79       Ni  0.46576249  0.03914084  0.50820118     1.26300
O80         O  0.51993903  0.97471578  0.41113168    -0.66900
O81         O  0.47910405  0.11253364  0.51017572    -0.79200
C82         C  0.35697826  0.03295954  0.47523295     0.84300
O83         O  0.39043581  0.04355040  0.51392422    -0.66300
Ni84       Ni  0.59559150  0.05455027  0.54171977     1.27400
Ni85       Ni  0.52856922  0.95892375  0.49094547     1.26100
H86         H  0.45059593  0.94600585  0.53946131     0.38800
N87         N  0.49499006  0.93785539  0.06563513    -0.36800
N88         N  0.50180292  0.05071888  0.05359541    -0.57400
N89         N  0.49710077  0.06110514  0.93218436    -0.36800
N90         N  0.49732494  0.94857190  0.94530651    -0.57400
C91         C  0.50190338  0.94167672  0.11880162     0.26700
C92         C  0.50209471  0.88737876  0.06219272     0.26700
C93         C  0.50973003  0.11183710  0.93813433     0.26700
C94         C  0.50620463  0.05747496  0.88100712     0.26700
C95         C  0.49505408  0.03886350  0.10725512     0.35400
C96         C  0.49690954  0.10327421  0.03736836     0.35400
C97         C  0.49194869  0.89533979  0.96026938     0.35400
C98         C  0.49212245  0.95971718  0.89040824     0.35400
C99         C  0.51229528  0.89251848  0.14944589    -0.22100
C100        C  0.51263562  0.85847559  0.11396051    -0.22100
C101        C  0.52597862  0.14105928  0.88978778    -0.22100
C102        C  0.52364832  0.10697476  0.85394636    -0.22100
C103        C  0.48637993  0.08426275  0.12519677    -0.23200
C104        C  0.48752391  0.12483287  0.08124696    -0.23200
C105        C  0.48347747  0.87278872  0.91443502    -0.23200
C106        C  0.48382821  0.91331293  0.87053498    -0.23200
C107        C  0.49770912  0.98784739  0.14067682    -0.18500
C108        C  0.49773184  0.86583511  0.01411666    -0.18500
C109        C  0.49882704  0.01089512  0.85787647    -0.18500
C110        C  0.50477802  0.13339190  0.98492272    -0.18500
H111        H  0.51918159  0.88222109  0.19292346     0.14400
H112        H  0.51968020  0.81693322  0.12517983     0.14400
H113        H  0.53826941  0.18280966  0.88110234     0.14400
H114        H  0.53408908  0.11749051  0.81273028     0.14400
H115        H  0.48000298  0.08788200  0.16575346     0.12700
H116        H  0.48243032  0.16579967  0.08175144     0.12700
H117        H  0.47826125  0.83121663  0.91262344     0.12700
H118        H  0.47932592  0.90894091  0.82875869     0.12700
H119        H  0.48169267  0.96645630  0.03345390     0.25900
H120        H  0.47868230  0.03217195  0.96027358     0.25900
N121        N  0.95344550  0.49761815  0.05552407    -0.36800
N122        N  0.07525387  0.50427166  0.05648860    -0.57400
N123        N  0.06331958  0.52018584  0.94215732    -0.36800
N124        N  0.94211125  0.50890281  0.94289268    -0.57400
C125        C  0.96986328  0.47996908  0.10781685     0.26700
C126        C  0.89939513  0.48244292  0.04758099     0.26700
C127        C  0.11734467  0.51163663  0.95231393     0.26700
C128        C  0.04672508  0.50968994  0.89269297     0.26700
C129        C  0.06948989  0.50907322  0.10743367     0.35400
C130        C  0.12780715  0.52079655  0.04751852     0.35400
C131        C  0.88938821  0.51444753  0.94966785     0.35400
C132        C  0.94762440  0.52485518  0.89000701     0.35400
C133        C  0.92580958  0.45342579  0.13376825    -0.22100
C134        C  0.88134844  0.45469920  0.09559135    -0.22100
C135        C  0.13552932  0.49628155  0.90844657    -0.22100
C136        C  0.09083569  0.49468482  0.87088269    -0.22100
C137        C  0.11880521  0.52794132  0.13126128    -0.23200
C138        C  0.15579749  0.53535610  0.09321030    -0.23200
C139        C  0.86132506  0.53493983  0.90088459    -0.23200
C140        C  0.89817585  0.54096581  0.86282472    -0.23200
C141        C  0.02131175  0.49369869  0.13377697    -0.18500
C142        C  0.86583542  0.49583811  0.99861351    -0.18500
C143        C  0.99394705  0.51715605  0.86529788    -0.18500
C144        C  0.15088471  0.52048983  0.99908619    -0.18500
H145        H  0.92550790  0.43590071  0.17608642     0.14400
H146        H  0.84028957  0.43796076  0.10258523     0.14400
H147        H  0.17668266  0.48730554  0.90397662     0.14400
H148        H  0.09107122  0.48462335  0.83153612     0.14400
H149        H  0.12737012  0.53522397  0.17196495     0.12700
H150        H  0.19830440  0.54975838  0.09857832     0.12700
H151        H  0.81839779  0.54257765  0.89326719     0.12700
H152        H  0.88925205  0.55415433  0.81984974     0.12700
H153        H  0.97633626  0.52476823  0.02930702     0.25900
H154        H  0.04038348  0.53782218  0.96488407     0.25900
O155        O  0.44739494  0.53164293  0.87368238    -0.81100
O156        O  0.49158917  0.51791011  0.11329114    -0.65800
O157        O  0.51567414  0.54068228  0.96641370    -1.12400
C158        C  0.52711475  0.35465306  0.00084342     1.05800
O159        O  0.56367169  0.46946251  0.13373372    -0.79000
O160        O  0.61913573  0.44609072  0.05872579    -0.66600
Ni161      Ni  0.47272252  0.58626254  0.91380368     1.34900
C162        C  0.63019944  0.46426558  0.01080283     0.84500
O163        O  0.49947197  0.60624727  0.03855902    -0.79600
O164        O  0.49549663  0.64386936  0.95048230    -0.89800
C165        C  0.52864919  0.49657878  0.14694847     0.84100
O166        O  0.40446423  0.57565110  0.94536414    -0.68000
O167        O  0.54544703  0.36087554  0.04834565    -0.87300
C168        C  0.38848759  0.54689338  0.98813604     0.84900
C169        C  0.50016983  0.64667238  0.00038496     1.06500
H170        H  0.46741772  0.44054712  0.04268066     0.38300
O171        O  0.50360368  0.45791193  0.03775261    -1.10000
O172        O  0.59357391  0.47103292  0.97089794    -0.66600
Ni173      Ni  0.51359118  0.46719754  0.96369043     1.26300
O174        O  0.42200161  0.52416249  0.02553283    -0.66900
O175        O  0.51057491  0.39244283  0.96385373    -0.79200
C176        C  0.47627234  0.49990768  0.85853438     0.84300
O177        O  0.51696673  0.48056912  0.88837865    -0.66300
Ni178      Ni  0.55293637  0.41739023  0.08866231     1.27400
Ni179      Ni  0.50122256  0.53141619  0.03914482     1.26100
H180        H  0.55305130  0.55538776  0.96440890     0.38800
O181        O  0.54936526  0.61822057  0.51192865    -0.81100
O182        O  0.53293761  0.39896935  0.47511533    -0.65800
O183        O  0.49743831  0.53893069  0.46700686    -1.12400
C184        C  0.44677295  0.46831445  0.64239405     1.05800
O185        O  0.44872080  0.37543386  0.49591006    -0.79000
O186        O  0.37731547  0.43124627  0.53261827    -0.66600
Ni187      Ni  0.54847470  0.59622666  0.44448130     1.34900
C188        C  0.36394025  0.47844687  0.51744440     0.84500
O189        O  0.53690113  0.48597082  0.39772688    -0.79600
O190        O  0.54720861  0.57497151  0.37636127    -0.89800
C191        C  0.49437559  0.36364544  0.48427906     0.84100
O192        O  0.61774071  0.56595735  0.46691688    -0.68000
O193        O  0.44020122  0.42327011  0.62818907    -0.87300
C194        C  0.63102145  0.51945744  0.48711629     0.84900
C195        C  0.54368238  0.52917075  0.36404285     1.06500
H196        H  0.52895406  0.45187035  0.56643609     0.38300
O197        O  0.49667646  0.45780808  0.54136560    -1.10000
O198        O  0.39977394  0.51762899  0.51503934    -0.66600
Ni199      Ni  0.47768986  0.52711314  0.53923681     1.26300
O200        O  0.59484305  0.48107653  0.49612701    -0.66900
O201        O  0.45998222  0.51171534  0.61160401    -0.79200
C202        C  0.50522086  0.63326947  0.52339242     0.84300
O203        O  0.46577284  0.59929965  0.53490185    -0.66300
Ni204      Ni  0.44476823  0.40056552  0.56146448     1.27400
Ni205      Ni  0.51801205  0.47027578  0.46986723     1.26100
H206        H  0.46456108  0.54384267  0.44258875     0.38800
C207        C  0.47330611  0.43465234  0.73758621    -0.26600
C208        C  0.44355668  0.47012802  0.69884057    -0.14600
C209        C  0.41805579  0.51063804  0.71435415     0.36000
C210        C  0.42683448  0.51761546  0.76755173    -0.26000
C211        C  0.46127481  0.48540412  0.80546999    -0.15200
C212        C  0.48239885  0.44168162  0.79106053     0.37100
N213        N  0.51377832  0.40529697  0.83018986    -0.89500
H214        H  0.49210355  0.40309457  0.72547620     0.18200
H215        H  0.40871253  0.55019534  0.77844154     0.18200
N216        N  0.38337554  0.54528005  0.67709269    -0.88500
H217        H  0.52762347  0.37648859  0.81228657     0.35600
H218        H  0.48727902  0.38544472  0.85817332     0.40700
H219        H  0.35295925  0.52234741  0.65834534     0.40300
H220        H  0.40647700  0.56828750  0.64779634     0.35200
C221        C  0.52363837  0.55506332  0.21179286    -0.26600
C222        C  0.53398159  0.50562676  0.20213845    -0.14600
C223        C  0.55083278  0.46545581  0.24520393     0.36000
C224        C  0.55750205  0.47579505  0.29733635    -0.26000
C225        C  0.54538477  0.52458239  0.30763180    -0.15200
C226        C  0.52894490  0.56488663  0.26430550     0.37100
N227        N  0.51570489  0.61497819  0.27335552    -0.89500
H228        H  0.51111730  0.58607811  0.17851198     0.18200
H229        H  0.57026603  0.44468279  0.33037945     0.18200
N230        N  0.55919975  0.41376534  0.23606655    -0.88500
H231        H  0.47514565  0.62078706  0.25777636     0.35600
H232        H  0.54097064  0.64435848  0.25170492     0.40700
H233        H  0.52132745  0.39740147  0.22190393     0.40300
H234        H  0.57160396  0.38887353  0.27221510     0.35200
C235        C  0.77811641  0.52137640  0.02478648    -0.26600
C236        C  0.80456355  0.48920490  0.99860196    -0.14600
C237        C  0.77238620  0.45080152  0.97378083     0.36000
C238        C  0.71524634  0.44571276  0.97543743    -0.26000
C239        C  0.68894503  0.47740566  0.00224526    -0.15200
C240        C  0.72100121  0.51596162  0.02710120     0.37100
N241        N  0.69713303  0.55080702  0.05434377    -0.89500
H242        H  0.80221078  0.55093717  0.04388339     0.18200
H243        H  0.69143536  0.41511953  0.95764641     0.18200
N244        N  0.79680542  0.41462746  0.94899552    -0.88500
H245        H  0.71041978  0.54117191  0.09535912     0.35600
H246        H  0.65442675  0.54607125  0.05082219     0.40700
H247        H  0.82583352  0.39501233  0.97721235     0.40300
H248        H  0.81668819  0.43566099  0.91633188     0.35200
C249        C  0.29381385  0.57733641  0.96134050    -0.26600
C250        C  0.32802846  0.54029304  0.99353614    -0.14600
C251        C  0.30343639  0.49761221  0.02873917     0.36000
C252        C  0.24601036  0.49210326  0.02988647    -0.26000
C253        C  0.21195665  0.52894024  0.99727818    -0.15200
C254        C  0.23672600  0.57298037  0.96348096     0.37100
N255        N  0.20572732  0.61446077  0.93124092    -0.89500
H256        H  0.31162557  0.61093199  0.93461493     0.18200
H257        H  0.22777715  0.45849910  0.05627580     0.18200
N258        N  0.33630107  0.45903016  0.06265076    -0.88500
H259        H  0.22014224  0.64965048  0.94395263     0.35600
H260        H  0.16436774  0.60918265  0.93779094     0.40700
H261        H  0.32315373  0.42207136  0.05337538     0.40300
H262        H  0.32927462  0.45825856  0.10265252     0.35200
C263        C  0.45722233  0.71857311  0.02795159    -0.26600
C264        C  0.50440287  0.70004621  0.01369856    -0.14600
C265        C  0.55139541  0.73530860  0.00491581     0.36000
C266        C  0.54907730  0.78848554  0.00844214    -0.26000
C267        C  0.50092159  0.80758207  0.01980089    -0.15200
C268        C  0.45471344  0.77219273  0.03032241     0.37100
N269        N  0.40485009  0.79129151  0.04119491    -0.89500
H270        H  0.42109889  0.69171069  0.03404081     0.18200
H271        H  0.58450725  0.81572736  0.00002251     0.18200
N272        N  0.60144002  0.71909694  0.99089646    -0.88500
H273        H  0.37469659  0.76025632  0.04809208     0.35600
H274        H  0.39040540  0.81707179  0.00645934     0.40700
H275        H  0.59893179  0.67874829  0.99045809     0.40300
H276        H  0.63220241  0.72527455  0.02126418     0.35200
C277        C  0.56165038  0.21429137  0.00044649    -0.26600
C278        C  0.51151424  0.19216728  0.98015650    -0.14600
C279        C  0.46787503  0.22535285  0.96127833     0.36000
C280        C  0.47497281  0.27900095  0.96567958    -0.26000
C281        C  0.52408181  0.30018869  0.98939304    -0.15200
C282        C  0.56827361  0.26737540  0.00564449     0.37100
N283        N  0.62055825  0.28683762  0.02739994    -0.89500
H284        H  0.59538247  0.18936829  0.01450914     0.18200
H285        H  0.44083271  0.30365005  0.95292767     0.18200
N286        N  0.41527042  0.20573213  0.93984696    -0.88500
H287        H  0.61625551  0.29785246  0.06401999     0.35600
H288        H  0.63440947  0.31998506  0.00030384     0.40700
H289        H  0.41429084  0.16551455  0.93918541     0.40300
H290        H  0.40880487  0.22505724  0.89972794     0.35200
C291        C  0.53118765  0.78184598  0.49473211    -0.26600
C292        C  0.47841228  0.79830730  0.49539462    -0.14600
C293        C  0.43489280  0.75953462  0.50773660     0.36000
C294        C  0.44527155  0.70620933  0.51902866    -0.26000
C295        C  0.49791187  0.69003736  0.51754816    -0.15200
C296        C  0.54130299  0.72853505  0.50542721     0.37100
N297        N  0.59574769  0.71403105  0.50329929    -0.89500
H298        H  0.56530293  0.81050527  0.48533965     0.18200
H299        H  0.41130831  0.67718124  0.52771395     0.18200
N300        N  0.37987687  0.77251273  0.50953114    -0.88500
H301        H  0.62207314  0.73158803  0.53094689     0.35600
H302        H  0.60758344  0.72945545  0.46469675     0.40700
H303        H  0.36516345  0.79195727  0.47129533     0.40300
H304        H  0.37977439  0.79710721  0.53756566     0.35200
C305        C  0.46923808  0.21969048  0.47780903    -0.26600
C306        C  0.51835523  0.19971148  0.50428402    -0.14600
C307        C  0.56126157  0.23512956  0.52053571     0.36000
C308        C  0.55353409  0.28928421  0.51041563    -0.26000
C309        C  0.50363734  0.30838604  0.48590698    -0.15200
C310        C  0.46159444  0.27354840  0.46868154     0.37100
N311        N  0.41128465  0.29286977  0.44137655    -0.89500
H312        H  0.43629042  0.19346592  0.46401408     0.18200
H313        H  0.58558883  0.31641630  0.52418970     0.18200
N314        N  0.61174214  0.21621798  0.54849959    -0.88500
H315        H  0.37916687  0.27409566  0.46332116     0.35600
H316        H  0.40604068  0.28209986  0.40348645     0.40700
H317        H  0.60277038  0.19424028  0.58606659     0.40300
H318        H  0.63918796  0.24767062  0.55623890     0.35200
C319        C  0.55666246  0.02255034  0.71987755    -0.26600
C320        C  0.50911847  0.02116985  0.68323697    -0.14600
C321        C  0.45801740  0.01517140  0.70534455     0.36000
C322        C  0.45562680  0.01257333  0.76159255    -0.26000
C323        C  0.50332990  0.01510843  0.79764409    -0.15200
C324        C  0.55460663  0.01892780  0.77591339     0.37100
N325        N  0.60576365  0.01934147  0.80920628    -0.89500
H326        H  0.59670250  0.02638438  0.70500710     0.18200
H327        H  0.41596677  0.00835705  0.77729971     0.18200
N328        N  0.40820386  0.01206723  0.67102929    -0.88500
H329        H  0.62513740  0.98576553  0.80654514     0.35600
H330        H  0.60002182  0.01632168  0.84978981     0.40700
H331        H  0.38476064  0.04261632  0.67480173     0.40300
H332        H  0.38655237  0.97623945  0.68494642     0.35200
C333        C  0.44169946  0.96039512  0.28069823    -0.26600
C334        C  0.48702884  0.97429654  0.31577320    -0.14600
C335        C  0.53687645  0.99183678  0.29235546     0.36000
C336        C  0.53948447  0.99569459  0.23577465    -0.26000
C337        C  0.49368923  0.98217026  0.20118508    -0.15200
C338        C  0.44421960  0.96393148  0.22481607     0.37100
N339        N  0.39498326  0.94944691  0.19344696    -0.89500
H340        H  0.40294190  0.94630280  0.29671891     0.18200
H341        H  0.57764076  0.00951005  0.21841086     0.18200
N342        N  0.58486170  0.00547473  0.32574883    -0.88500
H343        H  0.38577074  0.90898931  0.20606588     0.35600
H344        H  0.40001167  0.95542943  0.15241888     0.40700
H345        H  0.57739567  0.03911127  0.34004716     0.40300
H346        H  0.61836339  0.01599127  0.30291953     0.35200
C347        C  0.76841297  0.45340522  0.51155510    -0.26600
C348        C  0.80737376  0.49630008  0.51527675    -0.14600
C349        C  0.78747370  0.54685012  0.51075364     0.36000
C350        C  0.73030074  0.55304996  0.50234573    -0.26000
C351        C  0.69138848  0.51004678  0.49884799    -0.15200
C352        C  0.71135216  0.45960613  0.50289713     0.37100
N353        N  0.67391151  0.41473921  0.49698634    -0.89500
H354        H  0.78258388  0.41442587  0.51471374     0.18200
H355        H  0.71602700  0.59202420  0.49898000     0.18200
N356        N  0.82505669  0.59181355  0.51560553    -0.88500
H357        H  0.69484604  0.38044825  0.50225694     0.35600
H358        H  0.65597174  0.42107922  0.45720404     0.40700
H359        H  0.84356321  0.58601757  0.55516944     0.40300
H360        H  0.80412945  0.62613761  0.51009043     0.35200
C361        C  0.22590364  0.54344205  0.48615559    -0.26600
C362        C  0.18703334  0.49956397  0.48867741    -0.14600
C363        C  0.20740221  0.44883725  0.49927051     0.36000
C364        C  0.26457620  0.44319191  0.50702737    -0.26000
C365        C  0.30343328  0.48713825  0.50451905    -0.15200
C366        C  0.28298555  0.53784529  0.49384550     0.37100
N367        N  0.31978725  0.58418632  0.49111248    -0.89500
H368        H  0.21208113  0.58301519  0.47800692     0.18200
H369        H  0.27845920  0.40363531  0.51541361     0.18200
N370        N  0.17044970  0.40264125  0.50161216    -0.88500
H371        H  0.31097457  0.60491653  0.52018528     0.35600
H372        H  0.31223117  0.60803770  0.45315897     0.40700
H373        H  0.17782960  0.37859969  0.53948873     0.40300
H374        H  0.17938378  0.38205607  0.47246674     0.30800
C375        C  0.98622368  0.54404636  0.71322393    -0.26600
C376        C  0.96660704  0.49417009  0.70192095    -0.14600
C377        C  0.95369772  0.45262868  0.74517583     0.36000
C378        C  0.96348782  0.46138761  0.79814105    -0.26000
C379        C  0.98477000  0.51054221  0.80874146    -0.15200
C380        C  0.99531062  0.55249029  0.76606928     0.37100
N381        N  0.01531695  0.60385858  0.77548334    -0.89500
H382        H  0.99579902  0.57663984  0.68097854     0.18200
H383        H  0.95448885  0.42976422  0.83155517     0.18200
N384        N  0.93112699  0.40174156  0.73562615    -0.88500
H385        H  0.05250408  0.60042633  0.79962280     0.35600
H386        H  0.98722058  0.61744157  0.79670101     0.40700
H387        H  0.89186748  0.40667759  0.71586992     0.40300
H388        H  0.92611327  0.37550605  0.77199676     0.35200
C389        C  0.03714067  0.45359208  0.23049683    -0.26600
C390        C  0.02320747  0.49742195  0.19101687    -0.14600
C391        C  0.01163582  0.54456814  0.20622156     0.36000
C392        C  0.01432875  0.54660356  0.26080048    -0.26000
C393        C  0.02823181  0.50291564  0.30083475    -0.15200
C394        C  0.03929380  0.45557477  0.28524743     0.37100
N395        N  0.05366429  0.40935098  0.32362225    -0.89500
H396        H  0.04606889  0.41754575  0.21856046     0.18200
H397        H  0.00485105  0.58288388  0.27189858     0.18200
N398        N  0.99683295  0.59098215  0.16771941    -0.88500
H399        H  0.02047415  0.39562182  0.34610450     0.35600
H400        H  0.08743929  0.41937497  0.34928708     0.40700
H401        H  0.99531303  0.58545443  0.12801292     0.40300
H402        H  0.02753215  0.62090054  0.17201573     0.35200
C403        C  0.21397279  0.01715089  0.51510806    -0.26600
C404        C  0.18471164  0.02982885  0.46453563    -0.14600
C405        C  0.21186331  0.05051771  0.41838581     0.36000
C406        C  0.26917214  0.05504513  0.42342336    -0.26000
C407        C  0.29873717  0.03980670  0.47383114    -0.15200
C408        C  0.27073303  0.02229475  0.52038246     0.37100
N409        N  0.29860772  0.00697668  0.57294932    -0.89500
H410        H  0.19232433  0.00260488  0.55064004     0.18200
H411        H  0.29088886  0.06874332  0.38782633     0.18200
N412        N  0.18121441  0.06632253  0.36708985    -0.88500
H413        H  0.32282620  0.03958973  0.58281999     0.35600
H414        H  0.32370083  0.97670141  0.57219713     0.40700
H415        H  0.16026673  0.03251770  0.35616368     0.40300
H416        H  0.20768298  0.08141650  0.33736641     0.35200
C417        C  0.72804163  0.96070807  0.57587140    -0.26600
C418        C  0.69472928  0.95191657  0.52935931    -0.14600
C419        C  0.71887616  0.94105859  0.48510253     0.36000
C420        C  0.77593380  0.94549333  0.48607972    -0.26000
C421        C  0.80837729  0.96003278  0.53022270    -0.15200
C422        C  0.78493362  0.96576115  0.57634618     0.37100
N423        N  0.81892839  0.97824868  0.62254078    -0.89500
H424        H  0.70976273  0.96723700  0.61069688     0.18200
H425        H  0.79526562  0.94006626  0.45140067     0.18200
N426        N  0.68582151  0.92848869  0.43841826    -0.88500
H427        H  0.79501147  0.98032112  0.65352863     0.35600
H428        H  0.83797102  0.01596979  0.61128062     0.40700
H429        H  0.66483488  0.89180582  0.45028948     0.40300
H430        H  0.71043528  0.92386978  0.40886271     0.35200
C431        C  0.05533178  0.72258885  0.53670071    -0.26600
C432        C  0.01163005  0.69612373  0.51017407    -0.14600
C433        C  0.96765747  0.72494834  0.48273051     0.36000
C434        C  0.96849822  0.77920188  0.48165681    -0.26000
C435        C  0.01163708  0.80587868  0.50882007    -0.15200
C436        C  0.05522889  0.77671933  0.53779642     0.37100
N437        N  0.09950333  0.80017222  0.56909584    -0.89500
H438        H  0.08933694  0.70075375  0.55773556     0.18200
H439        H  0.93487757  0.80088037  0.45947546     0.18200
N440        N  0.92243002  0.70044996  0.45402457    -0.88500
H441        H  0.09874221  0.78049588  0.60913071     0.35600
H442        H  0.09404705  0.83955658  0.56939814     0.40700
H443        H  0.90289095  0.67122263  0.48144802     0.40300
H444        H  0.93755531  0.68264943  0.42561266     0.35200
C445        C  0.96189468  0.20516975  0.52941742    -0.26600
C446        C  0.97915951  0.19069209  0.48389759    -0.14600
C447        C  0.99513201  0.23095650  0.44066715     0.36000
C448        C  0.99591104  0.28418382  0.44545828    -0.26000
C449        C  0.97880132  0.29847481  0.49118585    -0.15200
C450        C  0.96112848  0.25838603  0.53321274     0.37100
N451        N  0.94406608  0.27152129  0.58079322    -0.89500
H452        H  0.94994709  0.17483437  0.56283592     0.18200
H453        H  0.00864956  0.31460877  0.41255785     0.18200
N454        N  0.00944172  0.21954711  0.39099441    -0.88500
H455        H  0.96935438  0.25378781  0.61396319     0.35600
H456        H  0.90402679  0.25523368  0.58526966     0.40700
H457        H  0.00318184  0.17941929  0.38973006     0.40300
H458        H  0.05119067  0.23019911  0.38849789     0.35200
loop_ 
_geom_bond_atom_site_label_1 
_geom_bond_atom_site_label_2 
_geom_bond_distance 
_geom_bond_site_symmetry_2 
_ccdc_geom_bond_type 
N1            C6   1.347       .  A
N1            C5   1.355       .  A
N1           H33   1.040       .  S
N2            C9   1.352       .  A
N2           C10   1.345       .  A
N3            C8   1.356       .  A
N3            C7   1.345       .  A
N3           H34   1.039       .  S
N4           C11   1.342       .  A
N4           C12   1.350       .  A
C5           C13   1.383       .  A
C5           C21   1.410       .  A
C6           C22   1.414   1_545  A
C6           C14   1.391       .  A
C7           C15   1.388       .  A
C7           C24   1.410   1_565  A
C8           C23   1.417       .  A
C8           C16   1.386       .  A
C9           C21   1.406   1_455  A
C9           C17   1.383       .  A
C10          C24   1.407       .  A
C10          C18   1.389       .  A
C11          C19   1.387       .  A
C11          C22   1.402       .  A
C12          C20   1.385       .  A
C12          C23   1.409   1_655  A
C13          C14   1.376       .  A
C13          H25   1.082       .  S
C14          H26   1.082       .  S
C15          C16   1.379       .  A
C15          H27   1.082       .  S
C16          H28   1.082       .  S
C17          C18   1.369       .  A
C17          H29   1.082       .  S
C18          H30   1.082       .  S
C19          C20   1.372       .  A
C19          H31   1.082       .  S
C20          H32   1.082       .  S
C21         C446   1.495       .  S
C22         C421   1.461       .  S
C23         C435   1.498       .  S
C24         C404   1.461       .  S
O35         Ni41   1.933       .  S
O35          C56   1.271       .  A
O36         Ni59   1.921       .  S
O36          C45   1.273   1_455  A
O37         Ni41   1.903   1_655  S
O37         Ni59   1.907   1_655  S
O37         Ni53   1.903       .  S
O37          H60   0.966       .  S
C38         C376   1.483       .  S
C38          O55   1.277       .  A
C38          O47   1.277       .  A
O39         Ni58   1.925       .  S
O39          C45   1.272       .  A
O40         Ni58   1.920       .  S
O40          C42   1.271       .  A
Ni41         O44   1.918       .  S
Ni41         O46   1.913       .  S
C42         C348   1.517       .  S
C42          O52   1.280       .  A
O43         Ni59   1.908       .  S
O43          C49   1.275       .  A
O44          C49   1.279       .  A
C45         C449   1.484       .  S
O46          C48   1.270       .  A
O47         Ni58   1.917       .  S
C48         C362   1.517       .  S
C48          O54   1.282       .  A
C49         C393   1.476       .  S
H50          O51   0.967   1_455  S
O51         Ni59   1.908   1_655  S
O51         Ni53   1.906       .  S
O51         Ni58   1.903       .  S
O52         Ni53   1.959       .  S
Ni53         O57   1.916       .  S
Ni53         O55   1.907       .  S
O54         Ni59   1.966       .  S
C56         C432   1.481       .  S
C56          O57   1.271   1_455  A
O61         Ni67   1.916   1_545  S
O61          C82   1.270       .  A
O62         Ni85   1.889       .  S
O62          C71   1.266       .  A
O63         Ni67   1.886       .  S
O63         Ni85   1.878       .  S
O63         Ni79   1.911   1_565  S
O63          H86   0.966       .  S
C64         C306   1.478       .  S
C64          O81   1.280       .  A
C64          O73   1.280       .  A
O65         Ni84   1.915   1_565  S
O65          C71   1.270       .  A
O66         Ni84   1.915       .  S
O66          C68   1.268       .  A
Ni67         O70   1.925       .  S
Ni67         O72   1.915       .  S
C68         C320   1.529       .  S
C68          O78   1.284       .  A
O69         Ni85   1.899       .  S
O69          C75   1.277       .  A
O70          C75   1.280       .  A
C71         C418   1.468       .  S
O72          C74   1.269       .  A
O73         Ni84   1.918       .  S
C74         C334   1.531       .  S
C74          O80   1.284       .  A
C75         C292   1.480       .  S
H76          O77   0.966       .  S
O77         Ni85   1.906   1_545  S
O77         Ni79   1.880       .  S
O77         Ni84   1.884       .  S
O78         Ni79   1.981       .  S
Ni79         O83   1.891       .  S
Ni79         O81   1.909       .  S
O80         Ni85   1.980       .  S
C82         C407   1.456       .  S
C82          O83   1.268       .  A
N87          C92   1.355       .  A
N87          C91   1.365       .  A
N87         H119   1.035       .  S
N88          C95   1.362       .  A
N88          C96   1.355       .  A
N89          C94   1.366       .  A
N89          C93   1.357       .  A
N89         H120   1.037       .  S
N90          C97   1.355       .  A
N90          C98   1.362       .  A
C91          C99   1.385       .  A
C91         C107   1.430       .  A
C92         C108   1.430       .  A
C92         C100   1.389       .  A
C93         C101   1.389       .  A
C93         C110   1.430       .  A
C94         C109   1.432       .  A
C94         C102   1.385       .  A
C95         C107   1.426   1_545  A
C95         C103   1.383       .  A
C96         C110   1.429   1_554  A
C96         C104   1.390       .  A
C97         C105   1.391       .  A
C97         C108   1.429   1_556  A
C98         C106   1.383       .  A
C98         C109   1.424   1_565  A
C99         C100   1.381       .  A
C99         H111   1.082       .  S
C100        H112   1.082       .  S
C101        C102   1.381       .  A
C101        H113   1.082       .  S
C102        H114   1.082       .  S
C103        C104   1.375       .  A
C103        H115   1.082       .  S
C104        H116   1.082       .  S
C105        C106   1.373       .  A
C105        H117   1.082       .  S
C106        H118   1.082       .  S
C107        C337   1.529       .  S
C108        C267   1.496       .  S
C109        C323   1.528       .  S
C110        C278   1.499       .  S
N121        C126   1.358       .  A
N121        C125   1.347       .  A
N121        H153   1.040       .  S
N122        C129   1.348       .  A
N122        C130   1.355       .  A
N123        C128   1.350       .  A
N123        C127   1.357       .  A
N123        H154   1.041       .  S
N124        C131   1.352       .  A
N124        C132   1.344       .  A
C125        C133   1.388       .  A
C125        C141   1.412   1_655  A
C126        C142   1.417   1_554  A
C126        C134   1.385       .  A
C127        C135   1.384       .  A
C127        C144   1.416       .  A
C128        C143   1.416   1_455  A
C128        C136   1.389       .  A
C129        C141   1.413       .  A
C129        C137   1.389       .  A
C130        C144   1.412   1_554  A
C130        C138   1.384       .  A
C131        C139   1.384       .  A
C131        C142   1.410       .  A
C132        C140   1.388       .  A
C132        C143   1.408       .  A
C133        C134   1.379       .  A
C133        H145   1.082       .  S
C134        H146   1.082       .  S
C135        C136   1.379       .  A
C135        H147   1.082       .  S
C136        H148   1.082       .  S
C137        C138   1.374       .  A
C137        H149   1.082       .  S
C138        H150   1.082       .  S
C139        C140   1.375       .  A
C139        H151   1.082       .  S
C140        H152   1.082       .  S
C141        C390   1.472       .  S
C142        C236   1.503       .  S
C143        C379   1.471       .  S
C144        C253   1.504       .  S
O155       Ni161   1.923       .  S
O155        C176   1.272       .  A
O156       Ni179   1.884       .  S
O156        C165   1.266       .  A
O157       Ni161   1.896       .  S
O157       Ni179   1.885   1_556  S
O157       Ni173   1.914       .  S
O157        H180   0.966       .  S
C158        C281   1.489   1_554  S
C158        O175   1.278   1_554  A
C158        O167   1.277       .  A
O159       Ni178   1.918       .  S
O159        C165   1.271       .  A
O160       Ni178   1.902       .  S
O160        C162   1.266       .  A
Ni161       O164   1.921       .  S
Ni161       O166   1.915       .  S
C162        C239   1.485       .  S
C162        O172   1.277   1_554  A
O163       Ni179   1.940       .  S
O163        C169   1.280       .  A
O164        C169   1.276   1_556  A
C165        C222   1.457       .  S
O166        C168   1.270       .  A
O167       Ni178   1.930       .  S
C168        C250   1.501       .  S
C168        O174   1.275   1_556  A
C169        C264   1.479       .  S
H170        O171   0.970       .  S
O171       Ni179   1.917       .  S
O171       Ni173   1.890   1_554  S
O171       Ni178   1.898       .  S
O172       Ni173   1.953       .  S
Ni173       O177   1.886       .  S
Ni173       O175   1.930       .  S
O174       Ni179   1.942       .  S
C176        C211   1.470       .  S
C176        O177   1.267       .  A
O181       Ni187   1.907       .  S
O181        C202   1.268       .  A
O182       Ni205   1.892       .  S
O182        C191   1.265       .  A
O183       Ni187   1.896       .  S
O183       Ni205   1.878       .  S
O183       Ni199   1.909       .  S
O183        H206   0.966       .  S
C184        C208   1.455       .  S
C184        O201   1.275       .  A
C184        O193   1.279       .  A
O185       Ni204   1.919       .  S
O185        C191   1.270       .  A
O186       Ni204   1.915       .  S
O186        C188   1.269       .  A
Ni187       O190   1.913       .  S
Ni187       O192   1.924       .  S
C188        C365   1.517       .  S
C188        O198   1.280       .  A
O189       Ni205   1.898       .  S
O189        C195   1.278       .  A
O190        C195   1.278       .  A
C191        C309   1.461       .  S
O192        C194   1.270       .  A
O193       Ni204   1.918       .  S
C194        C351   1.516       .  S
C194        O200   1.276       .  A
C195        C225   1.467       .  S
H196        O197   0.966       .  S
O197       Ni205   1.905       .  S
O197       Ni199   1.885       .  S
O197       Ni204   1.896       .  S
O198       Ni199   1.958       .  S
Ni199       O203   1.899       .  S
Ni199       O201   1.894       .  S
O200       Ni205   1.950       .  S
C202        C295   1.474       .  S
C202        O203   1.269       .  A
C207        C208   1.399       .  A
C207        C212   1.397       .  A
C207        H214   1.084       .  S
C208        C209   1.409       .  A
C209        C210   1.390       .  A
C209        N216   1.434       .  S
C210        C211   1.406       .  A
C210        H215   1.084       .  S
C211        C212   1.414       .  A
C212        N213   1.438       .  S
N213        H217   1.046       .  S
N213        H218   1.045       .  S
N216        H219   1.046       .  S
N216        H220   1.044       .  S
C221        C222   1.400       .  A
C221        C226   1.397       .  A
C221        H228   1.084       .  S
C222        C223   1.408       .  A
C223        C224   1.392       .  A
C223        N230   1.439       .  S
C224        C225   1.403       .  A
C224        H229   1.084       .  S
C225        C226   1.411       .  A
C226        N227   1.433       .  S
N227        H231   1.046       .  S
N227        H232   1.046       .  S
N230        H233   1.046       .  S
N230        H234   1.046       .  S
C235        C236   1.404   1_554  A
C235        C240   1.407       .  A
C235        H242   1.084       .  S
C236        C237   1.418       .  A
C237        C238   1.406       .  A
C237        N244   1.433       .  S
C238        C239   1.403   1_556  A
C238        H243   1.084       .  S
C239        C240   1.420       .  A
C240        N241   1.439       .  S
N241        H245   1.045       .  S
N241        H246   1.044       .  S
N244        H247   1.045       .  S
N244        H248   1.043       .  S
C249        C250   1.409       .  A
C249        C254   1.406       .  A
C249        H256   1.084       .  S
C250        C251   1.413   1_556  A
C251        C252   1.411       .  A
C251        N258   1.432       .  S
C252        C253   1.407   1_554  A
C252        H257   1.084       .  S
C253        C254   1.419       .  A
C254        N255   1.440       .  S
N255        H259   1.046       .  S
N255        H260   1.042       .  S
N258        H261   1.045       .  S
N258        H262   1.046       .  S
C263        C264   1.404       .  A
C263        C268   1.409       .  A
C263        H270   1.084       .  S
C264        C265   1.417       .  A
C265        C266   1.404       .  A
C265        N272   1.439   1_554  S
C266        C267   1.404       .  A
C266        H271   1.084       .  S
C267        C268   1.410       .  A
C268        N269   1.437       .  S
N269        H273   1.046       .  S
N269        H274   1.046       .  S
N272        H275   1.044       .  S
N272        H276   1.046   1_556  S
C277        C278   1.403   1_554  A
C277        C282   1.400       .  A
C277        H284   1.084       .  S
C278        C279   1.419       .  A
C279        C280   1.410       .  A
C279        N286   1.438       .  S
C280        C281   1.406       .  A
C280        H285   1.084       .  S
C281        C282   1.417   1_556  A
C282        N283   1.433       .  S
N283        H287   1.044       .  S
N283        H288   1.046       .  S
N286        H289   1.043       .  S
N286        H290   1.045       .  S
C291        C292   1.406       .  A
C291        C296   1.394       .  A
C291        H298   1.084       .  S
C292        C293   1.418       .  A
C293        C294   1.395       .  A
C293        N300   1.432       .  S
C294        C295   1.404       .  A
C294        H299   1.084       .  S
C295        C296   1.410       .  A
C296        N297   1.434       .  S
N297        H301   1.046       .  S
N297        H302   1.046       .  S
N300        H303   1.045       .  S
N300        H304   1.045       .  S
C305        C306   1.407       .  A
C305        C310   1.395       .  A
C305        H312   1.084       .  S
C306        C307   1.417       .  A
C307        C308   1.402       .  A
C307        N314   1.438       .  S
C308        C309   1.401       .  A
C308        H313   1.084       .  S
C309        C310   1.402       .  A
C310        N311   1.433       .  S
N311        H315   1.045       .  S
N311        H316   1.046       .  S
N314        H317   1.046       .  S
N314        H318   1.046       .  S
C319        C320   1.416       .  A
C319        C324   1.415       .  A
C319        H326   1.083       .  S
C320        C321   1.417       .  A
C321        C322   1.425       .  A
C321        N328   1.431       .  S
C322        C323   1.413       .  A
C322        H327   1.083       .  S
C323        C324   1.420       .  A
C324        N325   1.439       .  S
N325        H329   1.046   1_545  S
N325        H330   1.043       .  S
N328        H331   1.045       .  S
N328        H332   1.046   1_545  S
C333        C334   1.416       .  A
C333        C338   1.413       .  A
C333        H340   1.083       .  S
C334        C335   1.421       .  A
C335        C336   1.429       .  A
C335        N342   1.437   1_565  S
C336        C337   1.414       .  A
C336        H341   1.083   1_565  S
C337        C338   1.418       .  A
C338        N339   1.439       .  S
N339        H343   1.046       .  S
N339        H344   1.043       .  S
N342        H345   1.045       .  S
N342        H346   1.045       .  S
C347        C348   1.412       .  A
C347        C352   1.417       .  A
C347        H354   1.083       .  S
C348        C349   1.418       .  A
C349        C350   1.419       .  A
C349        N356   1.437       .  S
C350        C351   1.412       .  A
C350        H355   1.083       .  S
C351        C352   1.418       .  A
C352        N353   1.438       .  S
N353        H357   1.046       .  S
N353        H358   1.046       .  S
N356        H359   1.046       .  S
N356        H360   1.046       .  S
C361        C362   1.414       .  A
C361        C366   1.414       .  A
C361        H368   1.083       .  S
C362        C363   1.414       .  A
C363        C364   1.417       .  A
C363        N370   1.432       .  S
C364        C365   1.415       .  A
C364        H369   1.083       .  S
C365        C366   1.415       .  A
C366        N367   1.432       .  S
N367        H371   1.046       .  S
N367        H372   1.046       .  S
N370        H373   1.046       .  S
N370        H374   1.046       .  S
C375        C376   1.410       .  A
C375        C380   1.393       .  A
C375        H382   1.083       .  S
C376        C377   1.420       .  A
C377        C378   1.400       .  A
C377        N384   1.438       .  S
C378        C379   1.397       .  A
C378        H383   1.084       .  S
C379        C380   1.404       .  A
C380        N381   1.432   1_655  S
N381        H385   1.045       .  S
N381        H386   1.046   1_455  S
N384        H387   1.046       .  S
N384        H388   1.046       .  S
C389        C390   1.400       .  A
C389        C394   1.397       .  A
C389        H396   1.084       .  S
C390        C391   1.412       .  A
C391        C392   1.392       .  A
C391        N398   1.440   1_455  S
C392        C393   1.405       .  A
C392        H397   1.084       .  S
C393        C394   1.418       .  A
C394        N395   1.432       .  S
N395        H399   1.044       .  S
N395        H400   1.046       .  S
N398        H401   1.043       .  S
N398        H402   1.046   1_655  S
C403        C404   1.397       .  A
C403        C408   1.386       .  A
C403        H410   1.085       .  S
C404        C405   1.403       .  A
C405        C406   1.399       .  A
C405        N412   1.437       .  S
C406        C407   1.405       .  A
C406        H411   1.084       .  S
C407        C408   1.411       .  A
C408        N409   1.433       .  S
N409        H413   1.045       .  S
N409        H414   1.045   1_545  S
N412        H415   1.045       .  S
N412        H416   1.046       .  S
C417        C418   1.408       .  A
C417        C422   1.394       .  A
C417        H424   1.083       .  S
C418        C419   1.413       .  A
C419        C420   1.397       .  A
C419        N426   1.438       .  S
C420        C421   1.398       .  A
C420        H425   1.084       .  S
C421        C422   1.400       .  A
C422        N423   1.438       .  S
N423        H427   1.046       .  S
N423        H428   1.045   1_565  S
N426        H429   1.046       .  S
N426        H430   1.046       .  S
C431        C432   1.404       .  A
C431        C436   1.408       .  A
C431        H438   1.084       .  S
C432        C433   1.411   1_455  A
C433        C434   1.398       .  A
C433        N440   1.432       .  S
C434        C435   1.406   1_655  A
C434        H439   1.084       .  S
C435        C436   1.421       .  A
C436        N437   1.439       .  S
N437        H441   1.046       .  S
N437        H442   1.042       .  S
N440        H443   1.044       .  S
N440        H444   1.046       .  S
C445        C446   1.402       .  A
C445        C450   1.403       .  A
C445        H452   1.084       .  S
C446        C447   1.421       .  A
C447        C448   1.406       .  A
C447        N454   1.438   1_655  S
C448        C449   1.403       .  A
C448        H453   1.082   1_655  S
C449        C450   1.411       .  A
C450        N451   1.433       .  S
N451        H455   1.046       .  S
N451        H456   1.046       .  S
N454        H457   1.043       .  S
N454        H458   1.045       .  S
