geometry optimzed in LAMMPS
_audit_creation_date              2020-12-01 
_audit_creation_method            'lammps2cif' 
_symmetry_space_group_name_H-M    'P1' 
_symmetry_Int_Tables_number       1 
_symmetry_cell_setting            triclinic 
loop_ 
_symmetry_equiv_pos_as_xyz 
  x,y,z 
_cell_length_a                    47.4887116 
_cell_length_b                    47.140236427651786 
_cell_length_c                    47.25162908302342 
_cell_angle_alpha                 90.23744768408476 
_cell_angle_beta                  90.05398974816798 
_cell_angle_gamma                 90.04271087631618 
loop_ 
_atom_site_label 
_atom_site_type_symbol 
_atom_site_fract_x 
_atom_site_fract_y 
_atom_site_fract_z 
_atom_site_charge 
In1        In  0.53049052  0.13895915  0.15650465     1.36900
C2          C  0.55300661  0.18026743  0.12677552     0.79500
O3          O  0.57403439  0.12847564  0.16961732    -0.59000
O4          O  0.55299146  0.10053905  0.14048172    -0.49900
C5          C  0.51001139  0.12143743  0.20522634     0.72100
O6          O  0.51984370  0.14637619  0.20236080    -0.44700
C7          C  0.48070735  0.14983567  0.13459021     0.76900
O8          O  0.55175500  0.18190241  0.15365451    -0.56600
O9          O  0.49587214  0.12980258  0.12496496    -0.46700
O10         O  0.54375329  0.15754382  0.11607270    -0.53000
C11         C  0.57538919  0.10670365  0.15393647     0.87000
O12         O  0.51204342  0.10558116  0.18367524    -0.54900
O13         O  0.49069952  0.16303591  0.15563689    -0.58200
In14       In  0.67829808  0.06272511  0.08657485     1.36900
C15         C  0.65359041  0.08405395  0.04111814     0.79500
O16         O  0.63453021  0.04849184  0.09656976    -0.59000
O17         O  0.65481484  0.07736307  0.12486851    -0.49900
C18         C  0.70532215  0.01433439  0.09685155     0.72100
O19         O  0.69651033  0.02091925  0.07253375    -0.44700
C20         C  0.72204039  0.09783047  0.08397451     0.76900
O21         O  0.65923355  0.05786955  0.04279363    -0.56600
O22         O  0.70360617  0.10015786  0.10312129    -0.46700
O23         O  0.66008273  0.09844050  0.06265682    -0.53000
C24         C  0.63240659  0.06458399  0.11785772     0.87000
O25         O  0.69858410  0.03155984  0.11623431    -0.54900
O26         O  0.71859257  0.07698384  0.06755466    -0.58200
In27       In  0.91134578  0.58785741  0.79640356     1.36900
C28         C  0.89107098  0.53859902  0.81478503     0.79500
O29         O  0.92117910  0.59689112  0.84173099    -0.59000
O30         O  0.89060154  0.62267607  0.82089278    -0.49900
C31         C  0.95856719  0.61019207  0.77610411     0.72100
O32         O  0.95659801  0.58399695  0.78189469    -0.44700
C33         C  0.88527731  0.58453668  0.74714745     0.76900
O34         O  0.91741413  0.54283830  0.81300002    -0.56600
O35         O  0.87526522  0.59906826  0.76735769    -0.46700
O36         O  0.87611927  0.55937409  0.80748453    -0.53000
C37         C  0.90330644  0.61663796  0.84367470     0.87000
O38         O  0.93731036  0.62482493  0.78269516    -0.54900
O39         O  0.90873790  0.57307083  0.75195876    -0.58200
In40       In  0.83322919  0.66123206  0.94771048     1.36900
C41         C  0.79014585  0.62964671  0.93098720     0.79500
O42         O  0.84066659  0.67070167  0.90220730    -0.59000
O43         O  0.87118215  0.64581897  0.92416299    -0.49900
C44         C  0.84279150  0.71319189  0.96693989     0.72100
O45         O  0.81867468  0.70533631  0.95847167    -0.44700
C46         C  0.83348935  0.63830016  0.99849709     0.76900
O47         O  0.78913371  0.65649211  0.92925048    -0.56600
O48         O  0.85073254  0.63031731  0.97961751    -0.46700
O49         O  0.81277842  0.61983226  0.94064587    -0.53000
C50         C  0.86285283  0.65603933  0.90085373     0.87000
O51         O  0.86228192  0.69534412  0.96300968    -0.54900
O52         O  0.81745662  0.65840732  0.99159495    -0.58200
In53       In  0.03625099  0.64424326  0.67344989     1.36900
C54         C  0.05652086  0.69319078  0.65519103     0.79500
O55         O  0.08127920  0.63691341  0.68488713    -0.59000
O56         O  0.06217107  0.60965941  0.65412928    -0.49900
C57         C  0.01444812  0.62087180  0.71956638     0.72100
O58         O  0.02089636  0.64698993  0.71865291    -0.44700
C59         C  0.98857203  0.64930399  0.64454576     0.76900
O60         O  0.05242934  0.68905668  0.68141125    -0.56600
O61         O  0.00891228  0.63472454  0.63509773    -0.46700
O62         O  0.05007513  0.67258791  0.63939444    -0.53000
C63         C  0.08434170  0.61695076  0.66726723     0.87000
O64         O  0.02088610  0.60679427  0.69772924    -0.54900
O65         O  0.99244235  0.65991952  0.66877238    -0.58200
In66       In  0.18774525  0.56814587  0.59851660     1.36900
C67         C  0.16331625  0.58632943  0.55143327     0.79500
O68         O  0.14436320  0.55667774  0.61145624    -0.59000
O69         O  0.16468445  0.59110131  0.63303174    -0.49900
C70         C  0.21028122  0.52240740  0.62176670     0.72100
O71         O  0.20087648  0.52230444  0.59660593    -0.44700
C72         C  0.23716445  0.59112953  0.58775094     0.76900
O73         O  0.16683790  0.56004864  0.55600783    -0.56600
O74         O  0.22030997  0.60268859  0.60513787    -0.46700
O75         O  0.17254063  0.60250638  0.57066644    -0.53000
C76         C  0.14246075  0.57653036  0.62937876     0.87000
O77         O  0.20599321  0.54507385  0.63544658    -0.54900
O78         O  0.22860304  0.56838268  0.57658253    -0.58200
In79       In  0.31341175  0.43919140  0.64382920     1.36900
C80         C  0.33342239  0.41748231  0.69134836     0.79500
O81         O  0.30059362  0.39409837  0.63576945    -0.59000
O82         O  0.33025970  0.41348871  0.60804193    -0.49900
C83         C  0.26587272  0.46455038  0.62740839     0.72100
O84         O  0.27056143  0.45868389  0.65308789    -0.44700
C85         C  0.34860108  0.48281734  0.64618149     0.76900
O86         O  0.30737591  0.42271861  0.68841863    -0.56600
O87         O  0.34788016  0.46653902  0.62487039    -0.46700
O88         O  0.34825876  0.42222770  0.66975211    -0.53000
C89         C  0.31718205  0.39123845  0.61510093     0.87000
O90         O  0.28468561  0.45632375  0.61056403    -0.54900
O91         O  0.33034294  0.47771065  0.66480425    -0.58200
In92       In  0.39125556  0.29161239  0.56951863     1.36900
C93         C  0.40124654  0.24385652  0.59687951     0.79500
O94         O  0.36055293  0.26910866  0.54153855    -0.59000
O95         O  0.40095795  0.27923746  0.52467227    -0.49900
C96         C  0.35642813  0.33474953  0.57463513     0.72100
O97         O  0.35345637  0.31230886  0.58898635    -0.44700
C98         C  0.43555683  0.31858067  0.59031104     0.76900
O99         O  0.38126189  0.26007190  0.60424425    -0.56600
O100        O  0.43289926  0.31428917  0.56397201    -0.46700
O101        O  0.41520970  0.25203071  0.57579239    -0.53000
C102        C  0.37754888  0.26692278  0.52108047     0.87000
O103        O  0.37572218  0.33401355  0.55632656    -0.54900
O104        O  0.41547990  0.30958154  0.60521737    -0.58200
In105      In  0.33839507  0.16343265  0.44385976     1.36900
C106        C  0.29410004  0.14649589  0.41423323     0.79500
O107        O  0.35087908  0.18096321  0.40193605    -0.59000
O108        O  0.37600938  0.14807825  0.41970209    -0.49900
C109        C  0.34347594  0.21148613  0.47339192     0.72100
O110        O  0.32009510  0.19948600  0.46936922    -0.44700
C111        C  0.33942417  0.12507799  0.48536349     0.76900
O112        O  0.29572658  0.17139475  0.42426585    -0.56600
O113        O  0.36182176  0.13518296  0.47512322    -0.46700
O114        O  0.31523709  0.13101671  0.41899869    -0.53000
C115        C  0.37104735  0.16390554  0.39871061     0.87000
O116        O  0.36394578  0.19970830  0.46117666    -0.54900
O117        O  0.31725523  0.13448343  0.47431915    -0.58200
In118      In  0.41366431  0.09802647  0.29300760     1.36900
C119        C  0.39552124  0.05154835  0.31825713     0.79500
O120        O  0.42871974  0.10922483  0.33620710    -0.59000
O121        O  0.39572588  0.13403806  0.31789879    -0.49900
C122        C  0.45838926  0.11821745  0.26636323     0.72100
O123        O  0.45744090  0.09296897  0.27550493    -0.44700
C124        C  0.38344658  0.08907516  0.24693550     0.76900
O125        O  0.42139428  0.05486806  0.31240617    -0.56600
O126        O  0.37571529  0.10698116  0.26543743    -0.46700
O127        O  0.37976340  0.07182763  0.31116024    -0.53000
C128        C  0.41069749  0.12864266  0.33946298     0.87000
O129        O  0.43741634  0.13339674  0.27271777    -0.54900
O130        O  0.40646919  0.07678388  0.25191728    -0.58200
In131      In  0.88429288  0.79396369  0.06619757     1.36900
C132        C  0.92873850  0.82060163  0.08720380     0.79500
O133        O  0.87126825  0.83756593  0.05241653    -0.59000
O134        O  0.84642225  0.81664462  0.08341157    -0.49900
C135        C  0.87645268  0.76658108  0.01717655     0.72100
O136        O  0.90021800  0.77582404  0.02483037    -0.44700
C137        C  0.88785477  0.74967871  0.10102634     0.76900
O138        O  0.92681114  0.81499514  0.06101279    -0.56600
O139        O  0.86468880  0.76186602  0.09603877    -0.46700
O140        O  0.90753685  0.81371467  0.10174025    -0.53000
C141        C  0.85108665  0.83911658  0.06967747     0.87000
O142        O  0.85657875  0.77291345  0.03365887    -0.54900
O143        O  0.90853313  0.75963074  0.08773559    -0.58200
In144      In  0.80628479  0.93964695  0.14429390     1.36900
C145        C  0.82774673  0.91657570  0.19098393     0.79500
O146        O  0.79432716  0.89547809  0.13166223    -0.59000
O147        O  0.82305909  0.91786989  0.10534024    -0.49900
C148        C  0.75679236  0.96354840  0.13270181     0.72100
O149        O  0.76282938  0.95402276  0.15692897    -0.44700
C150        C  0.83502534  0.98791429  0.14801955     0.76900
O151        O  0.80146974  0.91947550  0.18765934    -0.56600
O152        O  0.84289895  0.96816822  0.13163379    -0.46700
O153        O  0.84236766  0.92499983  0.17044513    -0.53000
C154        C  0.81057364  0.89475025  0.11057858     0.87000
O155        O  0.77516647  0.95880714  0.11393802    -0.54900
O156        O  0.81268365  0.98299166  0.16141008    -0.58200
In157      In  0.14703872  0.17037709  0.54293270     1.36900
C158        C  0.19487134  0.15450792  0.56688821     0.79500
O159        O  0.13902140  0.18671511  0.58664052    -0.59000
O160        O  0.11006346  0.15688813  0.56895151    -0.49900
C161        C  0.13192007  0.21750569  0.51627442     0.72100
O162        O  0.15680846  0.21313441  0.52455152    -0.44700
C163        C  0.14920720  0.13267148  0.50055425     0.76900
O164        O  0.19270362  0.17801748  0.55429146    -0.56600
O165        O  0.13284150  0.12950076  0.52133349    -0.46700
O166        O  0.17265413  0.13992517  0.56745427    -0.72200
C167        C  0.11793528  0.17089368  0.59048538     0.87000
O168        O  0.11446519  0.19848767  0.52303221    -0.54900
O169        O  0.16331628  0.15527707  0.50123341    -0.58200
In170      In  0.07944624  0.09985663  0.69532229     1.36900
C171        C  0.09538401  0.05425208  0.66642107     0.79500
O172        O  0.06252722  0.11497527  0.65382458    -0.59000
O173        O  0.09786183  0.13660833  0.67124188    -0.49900
C174        C  0.03110694  0.10815317  0.72323622     0.72100
O175        O  0.03865972  0.08414929  0.71418434    -0.44700
C176        C  0.11519206  0.09580435  0.73895007     0.76900
O177        O  0.07048711  0.05707552  0.67555299    -0.56600
O178        O  0.10918133  0.11942478  0.72795290    -0.46700
O179        O  0.11142237  0.07508030  0.67134704    -0.53000
C180        C  0.08123086  0.13361683  0.65051535     0.87000
O181        O  0.04780725  0.12803001  0.71725347    -0.54900
O182        O  0.10322702  0.07490906  0.72750572    -0.58200
In183      In  0.58027586  0.79187588  0.92814999     1.36900
C184        C  0.53491772  0.81573779  0.90535146     0.79500
O185        O  0.59249141  0.83580963  0.94107268    -0.59000
O186        O  0.61932260  0.81366684  0.91239154    -0.49900
C187        C  0.59245331  0.76864016  0.97771680     0.72100
O188        O  0.56854300  0.77924240  0.97248678    -0.44700
C189        C  0.57541476  0.74340889  0.89943403     0.76900
O190        O  0.53653684  0.81122493  0.93170251    -0.56600
O191        O  0.59269613  0.76239433  0.89191245    -0.46700
O192        O  0.55646650  0.80860125  0.89152879    -0.53000
C193        C  0.61385655  0.83663252  0.92526799     0.87000
O194        O  0.61052253  0.77183948  0.95838279    -0.54900
O195        O  0.56171512  0.74911191  0.92152090    -0.58200
In196      In  0.66420051  0.93589924  0.85404856     1.36900
C197        C  0.64555485  0.90903200  0.80857343     0.79500
O198        O  0.67629332  0.89255518  0.86846968    -0.59000
O199        O  0.64473743  0.91480900  0.89176596    -0.49900
C200        C  0.71144863  0.96231050  0.86822132     0.72100
O201        O  0.70776384  0.95147498  0.84394919    -0.44700
C202        C  0.63494828  0.98271731  0.84423389     0.76900
O203        O  0.67164403  0.91305767  0.81247864    -0.56600
O204        O  0.62734928  0.96528542  0.86307071    -0.46700
O205        O  0.62985485  0.91842979  0.82791981    -0.53000
C206        C  0.65796753  0.89179517  0.88777410     0.87000
O207        O  0.69213057  0.95725938  0.88585441    -0.54900
O208        O  0.65740379  0.97643937  0.83157746    -0.58200
In209      In  0.55417206  0.58491544  0.18996076     1.36900
C210        C  0.56746694  0.53618362  0.16506572     0.79500
O211        O  0.54260757  0.59768916  0.14599279    -0.59000
O212        O  0.57421964  0.62150131  0.16779862    -0.49900
C213        C  0.50750043  0.60534387  0.21323579     0.72100
O214        O  0.50935784  0.57995703  0.20465841    -0.44700
C215        C  0.58486171  0.57769794  0.23673321     0.76900
O216        O  0.54309951  0.54045267  0.17499045    -0.56600
O217        O  0.59364465  0.59279183  0.21654993    -0.46700
O218        O  0.58416043  0.55680312  0.16755364    -0.53000
C219        C  0.56089164  0.61711299  0.14496126     0.87000
O220        O  0.52870721  0.62058294  0.20806273    -0.54900
O221        O  0.56083036  0.56715976  0.23294575    -0.58200
In222      In  0.63572311  0.66267937  0.04519050     1.36900
C223        C  0.68737305  0.64743343  0.06128249     0.79500
O224        O  0.62330018  0.67442581  0.08927529    -0.59000
O225        O  0.59868945  0.64348629  0.06744540    -0.49900
C226        C  0.62798246  0.71498838  0.02532985     0.72100
O227        O  0.65213398  0.70526113  0.03082250    -0.44700
C228        C  0.62850324  0.62673730  0.00179444     0.76900
O229        O  0.68252148  0.65915828  0.03782869    -0.56600
O230        O  0.63724949  0.61864959  0.02556440    -0.46700
O231        O  0.66637170  0.64590890  0.07741961    -0.53000
C232        C  0.60328349  0.65687471  0.09025195     0.87000
O233        O  0.60792973  0.69894235  0.03225279    -0.54900
O234        O  0.62096342  0.65224358  0.00113154    -0.58200
In235      In  0.42875587  0.62927226  0.31732214     1.36900
C236        C  0.40301882  0.67592626  0.33487819     0.79500
O237        O  0.38560808  0.61173959  0.31013727    -0.59000
O238        O  0.41220381  0.59186572  0.34069773    -0.49900
C239        C  0.45132840  0.60938263  0.27003711     0.72100
O240        O  0.44144214  0.63429430  0.27167394    -0.44700
C241        C  0.47642878  0.64257393  0.34301359     0.76900
O242        O  0.40538893  0.67050170  0.30868039    -0.56600
O243        O  0.45947056  0.62479483  0.35351606    -0.46700
O244        O  0.41267223  0.65711306  0.35103134    -0.53000
C245        C  0.38819580  0.59313746  0.32919858     0.87000
O246        O  0.44770105  0.59435612  0.29174808    -0.54900
O247        O  0.46951875  0.65215034  0.31918105    -0.58200
In248      In  0.27385669  0.56549013  0.38732730     1.36900
C249        C  0.29939305  0.59312476  0.42884500     0.79500
O250        O  0.31732804  0.55774336  0.37157890    -0.59000
O251        O  0.28946403  0.58215043  0.34590340    -0.49900
C252        C  0.25416647  0.51345663  0.37875061     0.72100
O253        O  0.26532372  0.52088800  0.40195201    -0.44700
C254        C  0.22492929  0.59056817  0.39681088     0.76900
O255        O  0.29918553  0.56622097  0.42809223    -0.56600
O256        O  0.24073706  0.59830820  0.37671705    -0.46700
O257        O  0.28717092  0.60505380  0.40852242    -0.53000
C258        C  0.31411917  0.57279734  0.34974190     0.87000
O259        O  0.25510019  0.53194486  0.35948914    -0.54900
O260        O  0.23360471  0.56956641  0.41068612    -0.58200
In261      In  0.15212712  0.43751211  0.34161150     1.36900
C262        C  0.13771456  0.42312315  0.28910958     0.79500
O263        O  0.16622756  0.39350895  0.35278944    -0.59000
O264        O  0.13390179  0.41260772  0.37744181    -0.49900
C265        C  0.20317225  0.46017431  0.34750001     0.72100
O266        O  0.19347647  0.45255370  0.32379343    -0.44700
C267        C  0.11575393  0.48009531  0.35044499     0.76900
O268        O  0.13294417  0.40738457  0.31005224    -0.56600
O269        O  0.10890088  0.45768839  0.33767851    -0.46700
O270        O  0.15164236  0.44524566  0.29471860    -0.53000
C271        C  0.14842054  0.39073080  0.37233841     0.87000
O272        O  0.18789409  0.45378558  0.36833558    -0.54900
O273        O  0.14004394  0.47957111  0.36093448    -0.58200
In274      In  0.07740899  0.28771591  0.41665742     1.36900
C275        C  0.02956765  0.30956992  0.39717603     0.79500
O276        O  0.08868381  0.33209610  0.42846977    -0.59000
O277        O  0.11479322  0.31064437  0.39865478    -0.49900
C278        C  0.09087165  0.26481040  0.46597283     0.72100
O279        O  0.06582794  0.27139141  0.45970999    -0.44700
C280        C  0.07671937  0.23950076  0.38733462     0.76900
O281        O  0.03518788  0.30959831  0.42333229    -0.56600
O282        O  0.08986332  0.26105028  0.37843190    -0.46700
O283        O  0.04799307  0.29809882  0.38184571    -0.53000
C284        C  0.10919418  0.33347688  0.41165743     0.87000
O285        O  0.10911285  0.27182548  0.44783434    -0.54900
O286        O  0.06511119  0.24262614  0.41108196    -0.58200
In287      In  0.78930391  0.07177312  0.87617664     1.36900
C288        C  0.81353639  0.08969974  0.92363722     0.79500
O289        O  0.83293350  0.05856473  0.86486432    -0.59000
O290        O  0.81343320  0.09025936  0.83956321    -0.49900
C291        C  0.76394237  0.02309219  0.86238430     0.72100
O292        O  0.77359781  0.02794968  0.88683519    -0.44700
C293        C  0.74494254  0.10573030  0.88225561     0.76900
O294        O  0.80831418  0.06369948  0.91940546    -0.56600
O295        O  0.76200239  0.10866081  0.86193838    -0.46700
O296        O  0.80707477  0.10577665  0.90341511    -0.53000
C297        C  0.83554572  0.07647217  0.84531881     0.87000
O298        O  0.76846627  0.04253686  0.84468867    -0.54900
O299        O  0.74991205  0.08474113  0.89793297    -0.58200
In300      In  0.94082316  0.15011650  0.81493906     1.36900
C301        C  0.91265083  0.19680337  0.82848156     0.79500
O302        O  0.90001534  0.13704514  0.79448526    -0.59000
O303        O  0.91446391  0.11411149  0.83036604    -0.49900
C304        C  0.97440413  0.14213468  0.77017466     0.72100
O305        O  0.96659595  0.16638715  0.77825973    -0.44700
C306        C  0.97971096  0.14906787  0.85584676     0.76900
O307        O  0.92639715  0.19479484  0.80561081    -0.56600
O308        O  0.96940270  0.12662674  0.84559695    -0.46700
O309        O  0.91294210  0.17483531  0.84365819    -0.53000
C310        C  0.89499925  0.11809348  0.81257919     0.87000
O311        O  0.96338938  0.12195663  0.78361186    -0.54900
O312        O  0.96971633  0.17148653  0.84565038    -0.58200
In313      In  0.08808897  0.19737782  0.91488658     1.36900
C314        C  0.03609645  0.17985099  0.90342153     0.79500
O315        O  0.09257235  0.24254668  0.90086263    -0.59000
O316        O  0.08596899  0.21139303  0.86921480    -0.49900
C317        C  0.09618802  0.21900931  0.96659677     0.72100
O318        O  0.07323959  0.20788252  0.95902784    -0.44700
C319        C  0.12531612  0.15649401  0.90683003     0.76900
O320        O  0.04150730  0.20398110  0.91352497    -0.56600
O321        O  0.12749441  0.18042401  0.89521443    -0.46700
O322        O  0.05696856  0.16340395  0.90183232    -0.53000
C323        C  0.08784357  0.23735171  0.87511096     0.87000
O324        O  0.11560710  0.21719851  0.94849719    -0.54900
O325        O  0.10514064  0.15415178  0.92407701    -0.58200
In326      In  0.15908862  0.04060522  0.85246645     1.36900
C327        C  0.15340130  0.05919922  0.79941580     0.79500
O328        O  0.14526724  0.99541337  0.85453619    -0.59000
O329        O  0.11378257  0.02641311  0.84791240    -0.49900
C330        C  0.20793667  0.01876613  0.87053872     0.72100
O331        O  0.20418118  0.02615102  0.84514443    -0.44700
C332        C  0.14646166  0.08186016  0.88798661     0.76900
O333        O  0.16106229  0.03434609  0.80528931    -0.56600
O334        O  0.13459749  0.05791565  0.88888225    -0.46700
O335        O  0.15161013  0.07552606  0.82048748    -0.53000
C336        C  0.11977873  0.00048723  0.84926754     0.87000
O337        O  0.18768533  0.02447557  0.88670183    -0.54900
O338        O  0.16600590  0.08410420  0.86995562    -0.58200
In339      In  0.57009021  0.88481751  0.70071199     1.36900
C340        C  0.60000633  0.92765758  0.67969295     0.79500
O341        O  0.57163035  0.90380397  0.74364868    -0.59000
O342        O  0.60186280  0.87183052  0.73379241    -0.49900
C343        C  0.51747680  0.87697899  0.71874141     0.72100
O344        O  0.52574486  0.90032270  0.70847477    -0.44700
C345        C  0.57809846  0.84783357  0.65939788     0.76900
O346        O  0.57338290  0.92719918  0.67754870    -0.56600
O347        O  0.58639282  0.84335019  0.68439195    -0.46700
O348        O  0.61050410  0.90647632  0.69179500    -0.53000
C349        C  0.59274140  0.88975858  0.75153351     0.87000
O350        O  0.53538528  0.85720040  0.71749528    -0.54900
O351        O  0.56386766  0.87023236  0.65612272    -0.58200
In352      In  0.63564755  0.81603541  0.54471211     1.36900
C353        C  0.68117751  0.83474236  0.57193005     0.79500
O354        O  0.65676426  0.82077119  0.50308545    -0.59000
O355        O  0.62707068  0.85247177  0.51454728    -0.49900
C356        C  0.62265745  0.76604604  0.52178642     0.72100
O357        O  0.64668763  0.77128223  0.53202916    -0.44700
C358        C  0.59848634  0.82643949  0.58504492     0.76900
O359        O  0.67624250  0.80849385  0.56920157    -0.56600
O360        O  0.59611752  0.83652067  0.56044335    -0.46700
O361        O  0.66279674  0.85063337  0.56116167    -0.53000
C362        C  0.64467474  0.84355412  0.49656746     0.87000
O363        O  0.60467369  0.78538900  0.52559911    -0.54900
O364        O  0.61852136  0.80911465  0.58824918    -0.58200
In365      In  0.43572215  0.83488315  0.81558213     1.36900
C366        C  0.41473356  0.78795675  0.83835881     0.79500
O367        O  0.47930543  0.81974647  0.82302552    -0.59000
O368        O  0.46214826  0.84777617  0.85385807    -0.49900
C369        C  0.46086138  0.84494699  0.76616902     0.72100
O370        O  0.45040643  0.82108981  0.77239025    -0.44700
C371        C  0.38966153  0.86655314  0.81936929     0.76900
O372        O  0.41726542  0.79047692  0.81181145    -0.56600
O373        O  0.41290865  0.87420282  0.83010357    -0.46700
O374        O  0.42243317  0.80934547  0.85240236    -0.53000
C375        C  0.48261902  0.83233381  0.84629992     0.87000
O376        O  0.45592967  0.86440175  0.78399412    -0.54900
O377        O  0.39080981  0.84428212  0.80454459    -0.58200
In378      In  0.28893412  0.91503128  0.89189935     1.36900
C379        C  0.31054692  0.89567748  0.94002575     0.79500
O380        O  0.24538729  0.91131250  0.90823927    -0.59000
O381        O  0.26075957  0.87714127  0.88297687    -0.49900
C382        C  0.26559610  0.96277878  0.87341056     0.72100
O383        O  0.27366836  0.95997441  0.89884105    -0.44700
C384        C  0.33396475  0.90804608  0.85965688     0.76900
O385        O  0.30853001  0.92209871  0.93549949    -0.56600
O386        O  0.31109105  0.89500214  0.85493284    -0.46700
O387        O  0.30218333  0.88019865  0.91994693    -0.53000
C388        C  0.24086081  0.88714911  0.89775218     0.87000
O389        O  0.27149343  0.94214513  0.85736855    -0.54900
O390        O  0.33304516  0.92587927  0.87964404    -0.58200
In391      In  0.57389499  0.69448759  0.41944483     1.36900
C392        C  0.52954013  0.66769721  0.39819261     0.79500
O393        O  0.55206335  0.73551393  0.41419565    -0.59000
O394        O  0.58521587  0.72644367  0.38523804    -0.49900
C395        C  0.58575742  0.71687211  0.46973007     0.72100
O396        O  0.56161995  0.70738371  0.46356954    -0.44700
C397        C  0.60877796  0.65140126  0.41260900     0.76900
O398        O  0.53301092  0.67035131  0.42461347    -0.56600
O399        O  0.61247796  0.67482851  0.40009963    -0.46700
O400        O  0.54849262  0.67887221  0.38327628    -0.53000
C401        C  0.56619859  0.74351305  0.39317536     0.87000
O402        O  0.60429475  0.71290681  0.45096136    -0.54900
O403        O  0.58862524  0.65097708  0.42995774    -0.58200
In404      In  0.66150863  0.55000284  0.34375021     1.36900
C405        C  0.64118880  0.56736024  0.29421865     0.79500
O406        O  0.65697673  0.50529460  0.33001075    -0.59000
O407        O  0.62536886  0.52195327  0.35743055    -0.49900
C408        C  0.70954100  0.52851720  0.36317772     0.72100
O409        O  0.70585519  0.53394012  0.33719488    -0.44700
C410        C  0.65254637  0.59729890  0.37249546     0.76900
O411        O  0.66747662  0.56705696  0.29897550    -0.56600
O412        O  0.64119386  0.57393400  0.37903138    -0.46700
O413        O  0.62628245  0.55927441  0.31466884    -0.53000
C414        C  0.63415349  0.50117600  0.34288591     0.87000
O415        O  0.68985953  0.53659454  0.37918112    -0.54900
O416        O  0.67002745  0.59599407  0.35240146    -0.58200
In417      In  0.05305930  0.39761363  0.18808087     1.36900
C418        C  0.06603413  0.44531717  0.16168657     0.79500
O419        O  0.08592830  0.41699782  0.21606926    -0.59000
O420        O  0.07644156  0.37373168  0.22260874    -0.49900
C421        C  0.00484763  0.39313659  0.21683355     0.72100
O422        O  0.01882469  0.41575531  0.21542893    -0.44700
C423        C  0.05848192  0.36363972  0.14355710     0.76900
O424        O  0.04233297  0.44189223  0.17338091    -0.56600
O425        O  0.07257027  0.36042560  0.16600942    -0.46700
O426        O  0.08202593  0.42400733  0.16247120    -0.53000
C427        C  0.09046719  0.39509672  0.23037049     0.87000
O428        O  0.01429845  0.37318685  0.20175773    -0.54900
O429        O  0.03987745  0.38270004  0.14480499    -0.58200
In430      In  0.13633800  0.31889820  0.04603613     1.36900
C431        C  0.18209712  0.34120478  0.07020521     0.79500
O432        O  0.15258342  0.32460217  0.00245122    -0.59000
O433        O  0.12360330  0.35550274  0.01759418    -0.49900
C434        C  0.12737688  0.26868195  0.02189984     0.72100
O435        O  0.15090142  0.27564430  0.03235528    -0.44700
C436        C  0.10157679  0.32316785  0.08968700     0.76900
O437        O  0.17883245  0.31469530  0.06771852    -0.56600
O438        O  0.09652807  0.33507725  0.06628460    -0.46700
O439        O  0.16213623  0.35574667  0.06040428    -0.53000
C440        C  0.13928400  0.34711367  0.99761834     0.87000
O441        O  0.10776373  0.28628316  0.02626157    -0.54900
O442        O  0.12297629  0.30737307  0.08980948    -0.58200
In443      In  0.92756307  0.34626056  0.31518659     1.36900
C444        C  0.89483090  0.30548148  0.33492910     0.79500
O445        O  0.96371972  0.31688775  0.32062810    -0.59000
O446        O  0.95899954  0.34984965  0.35111587    -0.49900
C447        C  0.95050950  0.35994880  0.26580813     0.72100
O448        O  0.93484662  0.33842770  0.26857808    -0.44700
C449        C  0.89112608  0.38704648  0.32506185     0.76900
O450        O  0.90262826  0.30554915  0.30926621    -0.56600
O451        O  0.91562003  0.38738983  0.33556941    -0.46700
O452        O  0.90310528  0.32630088  0.34943608    -0.53000
C453        C  0.97267793  0.32831595  0.34300120     0.87000
O454        O  0.95295699  0.37505699  0.28779666    -0.54900
O455        O  0.88651582  0.36748078  0.30724805    -0.58200
In456      In  0.78187672  0.41959629  0.39072380     1.36900
C457        C  0.81142020  0.40733240  0.43724231     0.79500
O458        O  0.73995117  0.41597239  0.41162262    -0.59000
O459        O  0.75409151  0.38019479  0.38845246    -0.49900
C460        C  0.76110094  0.46752140  0.36946623     0.72100
O461        O  0.77242487  0.46677184  0.39372376    -0.44700
C462        C  0.81956960  0.40829900  0.35137397     0.76900
O463        O  0.79855216  0.43064167  0.43457275    -0.56600
O464        O  0.79578779  0.39626917  0.35210870    -0.46700
O465        O  0.81015149  0.39142469  0.41584865    -0.53000
C466        C  0.73508403  0.39097934  0.40369416     0.87000
O467        O  0.76178103  0.44440511  0.35605345    -0.54900
O468        O  0.82354064  0.42720666  0.37006993    -0.58200
In469      In  0.28996759  0.06619532  0.59417520     1.36900
C470        C  0.30790469  0.07827941  0.54226298     0.79500
O471        O  0.27082953  0.10951692  0.58806173    -0.59000
O472        O  0.24574229  0.07750153  0.60662259    -0.49900
C473        C  0.26996703  0.01366713  0.60118829     0.72100
O474        O  0.27687389  0.02322537  0.57732529    -0.44700
C475        C  0.32969766  0.07836379  0.63156741     0.76900
O476        O  0.28360180  0.06892705  0.54738406    -0.56600
O477        O  0.30562462  0.08956334  0.63210056    -0.46700
O478        O  0.32420173  0.07891862  0.56335129    -0.53000
C479        C  0.24696211  0.10229988  0.59702975     0.87000
O480        O  0.27587991  0.02983540  0.62161441    -0.54900
O481        O  0.33313725  0.05964123  0.61264338    -0.58200
In482      In  0.44007361  0.13896267  0.67080135     1.36900
C483        C  0.41504258  0.18507258  0.65057506     0.79500
O484        O  0.48305025  0.15807348  0.67077683    -0.59000
O485        O  0.47131278  0.13306405  0.63516312    -0.49900
C486        C  0.45784967  0.12675629  0.72258194     0.72100
O487        O  0.44781885  0.15073650  0.71627517    -0.44700
C488        C  0.40180237  0.10045923  0.65736042     0.76900
O489        O  0.41443621  0.17938479  0.67670367    -0.56600
O490        O  0.42721735  0.09802846  0.64993221    -0.46700
O491        O  0.42772663  0.16705038  0.63559666    -0.53000
C492        C  0.48961148  0.14877051  0.64668550     0.87000
O493        O  0.45667126  0.10845321  0.70301818    -0.54900
O494        O  0.39666999  0.12131510  0.67339366    -0.58200
In495      In  0.55553626  0.08110856  0.79923371     1.36900
C496        C  0.57766544  0.03599028  0.82452775     0.79500
O497        O  0.56142782  0.06323503  0.75604343    -0.59000
O498        O  0.59221530  0.09257921  0.77074913    -0.49900
C499        C  0.50587114  0.09124370  0.77554875     0.72100
O500        O  0.51247523  0.06708981  0.78500264    -0.44700
C501        C  0.56070042  0.11744653  0.84172780     0.76900
O502        O  0.55129995  0.03876274  0.82182872    -0.56600
O503        O  0.57246223  0.12141464  0.81805554    -0.46700
O504        O  0.59188992  0.05613815  0.81456758    -0.53000
C505        C  0.58414142  0.07606594  0.75122596     0.87000
O506        O  0.52365002  0.11060051  0.78046226    -0.54900
O507        O  0.54453061  0.09622880  0.84273582    -0.58200
In508      In  0.63614941  0.16708700  0.93823980     1.36900
C509        C  0.67979034  0.13790387  0.91814026     0.79500
O510        O  0.65216018  0.16201004  0.98195023    -0.59000
O511        O  0.61985186  0.13362404  0.96807935    -0.49900
C512        C  0.62765310  0.21835978  0.96059678     0.72100
O513        O  0.65153958  0.21054865  0.95156435    -0.44700
C514        C  0.60310212  0.16121546  0.89359435     0.76900
O515        O  0.67859095  0.16463547  0.91540522    -0.56600
O516        O  0.59662520  0.15135716  0.91759437    -0.46700
O517        O  0.65919198  0.12703700  0.93071571    -0.53000
C518        C  0.63681141  0.14094326  0.98748067     0.87000
O519        O  0.60789527  0.20110007  0.95554432    -0.54900
O520        O  0.62517760  0.17612357  0.89316920    -0.58200
In521      In  0.08510863  0.79646896  0.57148628     1.36900
C522        C  0.03872288  0.82063369  0.59082665     0.79500
O523        O  0.06431098  0.75491708  0.57662747    -0.59000
O524        O  0.09286730  0.76770654  0.60915359    -0.49900
C525        C  0.10400161  0.77140234  0.52502352     0.72100
O526        O  0.07919079  0.78120173  0.52665675    -0.44700
C527        C  0.11779090  0.84151318  0.57546820     0.76900
O528        O  0.04186703  0.81566368  0.56460848    -0.56600
O529        O  0.12253390  0.81907393  0.58939320    -0.46700
O530        O  0.05955931  0.81423740  0.60607827    -0.53000
C531        C  0.07548900  0.74935949  0.60013315     0.87000
O532        O  0.11932769  0.77606953  0.54638358    -0.54900
O533        O  0.09733051  0.84014584  0.55842717    -0.58200
In534      In  0.16705967  0.94393587  0.64376110     1.36900
C535        C  0.13625141  0.92705094  0.68723936     0.79500
O536        O  0.16629244  0.98808276  0.65986063    -0.59000
O537        O  0.13606946  0.97687694  0.62820722    -0.49900
C538        C  0.21899287  0.96186114  0.63410033     0.72100
O539        O  0.21118258  0.95328903  0.65824266    -0.44700
C540        C  0.16077835  0.89744467  0.61330133     0.76900
O541        O  0.16281333  0.92413148  0.68739894    -0.56600
O542        O  0.15127971  0.92116318  0.60509651    -0.46700
O543        O  0.12624431  0.93807323  0.66525423    -0.53000
C544        C  0.14554095  0.99560678  0.64505961     0.87000
O545        O  0.20103142  0.95866149  0.61454957    -0.54900
O546        O  0.17530369  0.89824410  0.63564484    -0.58200
In547      In  0.04962660  0.58482872  0.30249712     1.36900
C548        C  0.06388774  0.53608982  0.32657719     0.79500
O549        O  0.07349235  0.56199844  0.26863917    -0.59000
O550        O  0.08281039  0.60549017  0.27502483    -0.49900
C551        C  0.00361817  0.59845882  0.27287898     0.72100
O552        O  0.00750590  0.57399455  0.28281700    -0.44700
C553        C  0.05265116  0.61666623  0.34863467     0.76900
O554        O  0.04008666  0.53957370  0.31500874    -0.56600
O555        O  0.06803831  0.62050429  0.32724249    -0.46700
O556        O  0.07935139  0.55787482  0.32702786    -0.53000
C557        C  0.08813717  0.58302364  0.26155730     0.87000
O558        O  0.02224475  0.61622122  0.27961672    -0.54900
O559        O  0.03416696  0.59762493  0.34575797    -0.58200
In560      In  0.12642256  0.66536310  0.44713979     1.36900
C561        C  0.17077675  0.64559419  0.41960704     0.79500
O562        O  0.14965083  0.66294580  0.48774411    -0.59000
O563        O  0.12104282  0.62928969  0.47837439    -0.49900
C564        C  0.10712662  0.71289980  0.46986875     0.72100
O565        O  0.13192724  0.71102899  0.46010018    -0.44700
C566        C  0.09243836  0.65849402  0.40371536     0.76900
O567        O  0.16768001  0.67200118  0.42390784    -0.56600
O568        O  0.08887299  0.64505164  0.42665133    -0.46700
O569        O  0.15135092  0.63021913  0.42930867    -0.53000
C570        C  0.13926404  0.63952791  0.49517416     0.87000
O571        O  0.09202159  0.69109125  0.46643699    -0.54900
O572        O  0.11200706  0.67664150  0.40399280    -0.58200
In573      In  0.58424250  0.29491116  0.06329174     1.36900
C574        C  0.53800685  0.31893946  0.08436439     0.79500
O575        O  0.56672627  0.25273546  0.07495302    -0.59000
O576        O  0.59992875  0.26896397  0.10042270    -0.49900
C577        C  0.59400895  0.26988742  0.01330867     0.72100
O578        O  0.56989382  0.27812611  0.02095087    -0.44700
C579        C  0.61640505  0.34041314  0.06905012     0.76900
O580        O  0.54152444  0.31623590  0.05795653    -0.56600
O581        O  0.62272476  0.31692450  0.08020190    -0.46700
O582        O  0.55793311  0.30957717  0.09916536    -0.53000
C583        C  0.58203241  0.24950900  0.09651320     0.87000
O584        O  0.61354265  0.27619379  0.03037054    -0.54900
O585        O  0.59546776  0.33967451  0.05263055    -0.58200
In586      In  0.65712144  0.44217138  0.14574974     1.36900
C587        C  0.64251191  0.42935895  0.19836762     0.79500
O588        O  0.64352726  0.48386120  0.12757636    -0.59000
O589        O  0.61271532  0.45939380  0.14858374    -0.49900
C590        C  0.70758532  0.46622153  0.13984709     0.72100
O591        O  0.69840591  0.45827357  0.16356445    -0.44700
C592        C  0.65352693  0.39610460  0.11338457     0.76900
O593        O  0.65317602  0.45292161  0.19181740    -0.56600
O594        O  0.63919574  0.41818717  0.10888343    -0.46700
O595        O  0.64189132  0.41131999  0.17860244    -0.53000
C596        C  0.61888973  0.48260645  0.13714036     0.87000
O597        O  0.69214503  0.45955116  0.11917746    -0.54900
O598        O  0.67080017  0.39811965  0.13359302    -0.58200
In599      In  0.93831766  0.64235531  0.16470247     1.36900
C600        C  0.92168817  0.69357828  0.14804994     0.79500
O601        O  0.98130675  0.62619803  0.15312192    -0.59000
O602        O  0.95673752  0.64329912  0.12019178    -0.49900
C603        C  0.96053356  0.63558149  0.21598792     0.72100
O604        O  0.95603456  0.65988115  0.20569153    -0.44700
C605        C  0.89222392  0.61075136  0.16523382     0.76900
O606        O  0.94354540  0.68990563  0.16284768    -0.56600
O607        O  0.91335045  0.60447635  0.15012293    -0.46700
O608        O  0.90726758  0.67153272  0.14395671    -0.53000
C609        C  0.98037986  0.63413167  0.12783110     0.87000
O610        O  0.95203293  0.61523324  0.20085349    -0.54900
O611        O  0.89542359  0.63216626  0.18097189    -0.58200
In612      In  0.78783581  0.56645949  0.09971486     1.36900
C613        C  0.81594114  0.58492230  0.05514816     0.79500
O614        O  0.75497374  0.58944998  0.07492912    -0.59000
O615        O  0.75550938  0.59613971  0.11934734    -0.49900
C616        C  0.76008788  0.51800511  0.10773054     0.72100
O617        O  0.76906138  0.52556179  0.08380192    -0.44700
C618        C  0.83310248  0.56904705  0.13227150     0.76900
O619        O  0.80837733  0.55923063  0.05719442    -0.56600
O620        O  0.81212555  0.58517188  0.13593866    -0.46700
O621        O  0.80986514  0.60032986  0.07617153    -0.53000
C622        C  0.74423665  0.60198845  0.09584017     0.87000
O623        O  0.76659387  0.53447728  0.12779120    -0.54900
O624        O  0.82962794  0.54981894  0.11398850    -0.58200
In625      In  0.78634605  0.91454165  0.60271395     1.36900
C626        C  0.80850160  0.89595367  0.55478975     0.79500
O627        O  0.83050938  0.92614876  0.61341220    -0.59000
O628        O  0.80991073  0.89499275  0.63882766    -0.49900
C629        C  0.76443902  0.96133437  0.62437270     0.72100
O630        O  0.77324857  0.96019860  0.59905160    -0.44700
C631        C  0.73782021  0.88832038  0.59360577     0.76900
O632        O  0.80468496  0.92223462  0.55919590    -0.56600
O633        O  0.75628993  0.87772709  0.60982255    -0.46700
O634        O  0.80146018  0.88001890  0.57496817    -0.53000
C635        C  0.83232890  0.90858476  0.63341928     0.87000
O636        O  0.76854686  0.93921167  0.63876800    -0.54900
O637        O  0.74397072  0.91219500  0.58344584    -0.58200
In638      In  0.93498075  0.83740799  0.67564482     1.36900
C639        C  0.91252202  0.79129446  0.65265878     0.79500
O640        O  0.89113067  0.84802402  0.68898530    -0.59000
O641        O  0.91195706  0.87598077  0.66046846    -0.49900
C642        C  0.96042925  0.84831487  0.72438018     0.72100
O643        O  0.94983105  0.82432175  0.71874540    -0.44700
C644        C  0.98257339  0.83465205  0.64657824     0.76900
O645        O  0.91596671  0.79349936  0.67913387    -0.56600
O646        O  0.96293160  0.85116236  0.63910787    -0.46700
O647        O  0.92027481  0.81258292  0.63863897    -0.53000
C648        C  0.88938349  0.86935894  0.67307505     0.87000
O649        O  0.95536592  0.86740831  0.70636558    -0.54900
O650        O  0.97774774  0.82045069  0.66851849    -0.58200
In651      In  0.59160105  0.19499948  0.57330489     1.36900
C652        C  0.54553408  0.17046715  0.59299793     0.79500
O653        O  0.60343053  0.15095413  0.56160682    -0.59000
O654        O  0.62829906  0.17239730  0.59280224    -0.49900
C655        C  0.61024098  0.21639292  0.52497445     0.72100
O656        O  0.58537851  0.20697815  0.52759425    -0.44700
C657        C  0.58220827  0.24354783  0.60019331     0.76900
O658        O  0.54881136  0.17494077  0.56677451    -0.56600
O659        O  0.59972581  0.22569094  0.60968974    -0.46700
O660        O  0.56576962  0.17835093  0.60843854    -0.53000
C661        C  0.62319524  0.14958465  0.57939703     0.87000
O662        O  0.62567582  0.21349619  0.54655906    -0.54900
O663        O  0.57088325  0.23684897  0.57698664    -0.58200
In664      In  0.66227663  0.04292766  0.64797212     1.36900
C665        C  0.64109452  0.06314209  0.69572006     0.79500
O666        O  0.67488762  0.08815970  0.64168421    -0.59000
O667        O  0.64670126  0.06905154  0.61196914    -0.49900
C668        C  0.70979317  0.01951861  0.62990570     0.72100
O669        O  0.70587015  0.02553080  0.65576238    -0.44700
C670        C  0.63001023  0.99690133  0.64969057     0.76900
O671        O  0.66735160  0.05895848  0.69306855    -0.56600
O672        O  0.62513034  0.01690285  0.63260233    -0.46700
O673        O  0.62667459  0.05758167  0.67399966    -0.53000
C674        C  0.65935704  0.09125864  0.62023107     0.87000
O675        O  0.69023507  0.02700216  0.61351681    -0.54900
O676        O  0.65210825  0.99994864  0.66426237    -0.58200
In677      In  0.15440557  0.54073318  0.15307566     1.36900
C678        C  0.13572363  0.55198685  0.20485455     0.79500
O679        O  0.16653627  0.58582018  0.14468954    -0.59000
O680        O  0.13854910  0.56530666  0.11591242    -0.49900
C681        C  0.20646143  0.51983912  0.15055842     0.72100
O682        O  0.19343150  0.52295579  0.17356419    -0.44700
C683        C  0.11829498  0.49986498  0.13875454     0.76900
O684        O  0.13792467  0.57084889  0.18617074    -0.56600
O685        O  0.11043153  0.52275336  0.14998938    -0.46700
O686        O  0.14532207  0.52807428  0.19784925    -0.53000
C687        C  0.15112918  0.58787356  0.12304042     0.87000
O688        O  0.19382101  0.52951505  0.12923552    -0.54900
O689        O  0.14391554  0.49917424  0.13212387    -0.58200
In690      In  0.08453234  0.68839209  0.06790620     1.36900
C691        C  0.03560461  0.66313573  0.07855798     0.79500
O692        O  0.09996200  0.64505375  0.05667684    -0.59000
O693        O  0.11834496  0.66627879  0.09221350    -0.49900
C694        C  0.10987136  0.71183431  0.02372737     0.72100
O695        O  0.08542293  0.70117935  0.02194675    -0.44700
C696        C  0.07294732  0.73552910  0.09672762     0.76900
O697        O  0.04099968  0.67317749  0.05433501    -0.56600
O698        O  0.08803525  0.71616468  0.10725904    -0.46700
O699        O  0.05527251  0.66556843  0.09627179    -0.53000
C700        C  0.11656992  0.64380066  0.07753370     0.87000
O701        O  0.12171168  0.70885246  0.04744143    -0.54900
O702        O  0.06473182  0.73085779  0.07182625    -0.58200
In703      In  0.62996091  0.31653733  0.44218986     1.36900
C704        C  0.67783179  0.33613975  0.42067806     0.79500
O705        O  0.61806413  0.30692341  0.39759986    -0.59000
O706        O  0.59296529  0.33661464  0.42070487    -0.49900
C707        C  0.61215941  0.26798633  0.46382170     0.72100
O708        O  0.63740051  0.27148151  0.45588210    -0.44700
C709        C  0.63580173  0.34235557  0.49173532     0.76900
O710        O  0.67325658  0.30975167  0.42280572    -0.56600
O711        O  0.62070866  0.35302924  0.47241459    -0.46700
O712        O  0.65790529  0.35168245  0.42902309    -0.53000
C713        C  0.59795791  0.32441647  0.39730408     0.87000
O714        O  0.59573446  0.28820301  0.45807758    -0.54900
O715        O  0.64662872  0.31873906  0.48578413    -0.58200
In716      In  0.55797442  0.40170820  0.29841791     1.36900
C717        C  0.57806489  0.44659244  0.32569671     0.79500
O718        O  0.54247016  0.38842476  0.34128485    -0.59000
O719        O  0.57403774  0.36363543  0.32098773    -0.49900
C720        C  0.51000062  0.39550761  0.26951020     0.72100
O721        O  0.51917892  0.41944535  0.27713152    -0.44700
C722        C  0.59479874  0.40072314  0.25595327     0.76900
O723        O  0.55237097  0.44499809  0.31867416    -0.56600
O724        O  0.58744928  0.37843477  0.26864394    -0.46700
O725        O  0.59252809  0.42495976  0.31972246    -0.53000
C726        C  0.55953055  0.36799841  0.34294791     0.87000
O727        O  0.52438825  0.37485484  0.27813113    -0.54900
O728        O  0.58289290  0.42297491  0.26456182    -0.58200
In729      In  0.43577064  0.34874776  0.16810965     1.36900
C730        C  0.40770531  0.30356828  0.14905287     0.79500
O731        O  0.39360669  0.36821049  0.17588323    -0.59000
O732        O  0.42172624  0.38910535  0.14770834    -0.49900
C733        C  0.45819589  0.36124964  0.21819807     0.72100
O734        O  0.44697165  0.33748263  0.21296090    -0.44700
C735        C  0.48334352  0.33824650  0.14051749     0.76900
O736        O  0.40965109  0.30877387  0.17526479    -0.56600
O737        O  0.46532918  0.35552547  0.13111570    -0.46700
O738        O  0.41950419  0.32156737  0.13345399    -0.53000
C739        C  0.39749812  0.38821950  0.15863406     0.87000
O740        O  0.45609547  0.37918375  0.19853562    -0.54900
O741        O  0.47734950  0.32743249  0.16405690    -0.58200
In742      In  0.28449542  0.42466034  0.10288698     1.36900
C743        C  0.31088158  0.40721924  0.05656161     0.79500
O744        O  0.32804587  0.43067146  0.11979776    -0.59000
O745        O  0.29986816  0.40406176  0.14262301    -0.49900
C746        C  0.26309965  0.47436120  0.11783440     0.72100
O747        O  0.27558855  0.47065579  0.09451249    -0.44700
C748        C  0.23668263  0.39740858  0.09121394     0.76900
O749        O  0.30718403  0.43334303  0.06153156    -0.56600
O750        O  0.25462631  0.38740509  0.10823016    -0.46700
O751        O  0.30176352  0.39088024  0.07547311    -0.53000
C752        C  0.32458599  0.41357432  0.13999957     0.87000
O753        O  0.26372280  0.45335946  0.13432784    -0.54900
O754        O  0.24281567  0.42137031  0.08135122    -0.58200
In755      In  0.06706538  0.88816523  0.79596211     1.36900
C756        C  0.09225821  0.92911830  0.82461198     0.79500
O757        O  0.05204525  0.87620367  0.83893395    -0.59000
O758        O  0.08035722  0.84828263  0.81748829    -0.49900
C759        C  0.01720743  0.88115909  0.77113493     0.72100
O760        O  0.02474164  0.90448321  0.78201100    -0.44700
C761        C  0.10112496  0.89322632  0.75173564     0.76900
O762        O  0.06678953  0.93143601  0.81687918    -0.56600
O763        O  0.10120556  0.87126884  0.76699920    -0.46700
O764        O  0.10402307  0.90616793  0.81793470    -0.53000
C765        C  0.06757925  0.85454641  0.84018261     0.87000
O766        O  0.03472834  0.86121960  0.77392773    -0.54900
O767        O  0.08271178  0.91135223  0.75830108    -0.58200
In768      In  0.13930025  0.81351795  0.94321935     1.36900
C769        C  0.18607088  0.83218634  0.91908905     0.79500
O770        O  0.12905359  0.80034757  0.89912089    -0.59000
O771        O  0.10265360  0.83109345  0.91932839    -0.49900
C772        C  0.11942308  0.76603039  0.96539480     0.72100
O773        O  0.14529986  0.76905858  0.95955174    -0.44700
C774        C  0.14502232  0.84267705  0.99125127     0.76900
O775        O  0.18300463  0.80619201  0.92516380    -0.56600
O776        O  0.12921462  0.85143820  0.97155289    -0.46700
O777        O  0.16535640  0.84772274  0.92524958    -0.53000
C778        C  0.10845166  0.81713665  0.89707009     0.87000
O779        O  0.10386707  0.78649327  0.95831328    -0.54900
O780        O  0.15681141  0.81923609  0.98643359    -0.58200
In781      In  0.18170557  0.91890399  0.09626908     1.36900
C782        C  0.15974713  0.89890076  0.04837208     0.79500
O783        O  0.22404696  0.91450881  0.07734432    -0.59000
O784        O  0.21049185  0.88207886  0.10567738    -0.49900
C785        C  0.20438069  0.96576292  0.11798735     0.72100
O786        O  0.19575307  0.96460885  0.09258116    -0.44700
C787        C  0.13592217  0.91216922  0.12675138     0.76900
O788        O  0.16400698  0.92527001  0.05192852    -0.56600
O789        O  0.15837300  0.89856087  0.13176045    -0.46700
O790        O  0.16606685  0.88375100  0.06934447    -0.53000
C791        C  0.22931614  0.89112934  0.08902806     0.87000
O792        O  0.19984909  0.94368481  0.13230266    -0.54900
O793        O  0.13771853  0.93067278  0.10757680    -0.58200
In794      In  0.03247046  0.84097497  0.17097356     1.36900
C795        C  0.05330164  0.79220984  0.15181080     0.79500
O796        O  0.98888289  0.82464388  0.16695959    -0.59000
O797        O  0.00400663  0.85145653  0.13403530    -0.49900
C798        C  0.01112077  0.86310945  0.21808345     0.72100
O799        O  0.01791384  0.83713214  0.21635406    -0.44700
C800        C  0.07920667  0.87047273  0.16458498     0.76900
O801        O  0.04993093  0.79659017  0.17810263    -0.56600
O802        O  0.05678613  0.87645002  0.15133099    -0.46700
O803        O  0.04599794  0.81254500  0.13621505    -0.53000
C804        C  0.98411394  0.83631630  0.14349816     0.87000
O805        O  0.01690686  0.87766060  0.19650582    -0.54900
O806        O  0.07713222  0.85043210  0.18209309    -0.58200
In807      In  0.88691175  0.68929378  0.56733823     1.36900
C808        C  0.93369461  0.66637002  0.58762203     0.79500
O809        O  0.90623985  0.73187056  0.57149968    -0.59000
O810        O  0.87841502  0.71833745  0.60429302    -0.49900
C811        C  0.86433424  0.71223133  0.52157564     0.72100
O812        O  0.88991744  0.70443036  0.52219476    -0.44700
C813        C  0.85588202  0.64360796  0.57278251     0.76900
O814        O  0.93073878  0.67078890  0.56126804    -0.56600
O815        O  0.85083636  0.66622872  0.58646848    -0.46700
O816        O  0.91272415  0.67311254  0.60253607    -0.53000
C817        C  0.89503521  0.73719671  0.59510315     0.87000
O818        O  0.85032442  0.70655966  0.54351031    -0.54900
O819        O  0.87591472  0.64500745  0.55523884    -0.58200
In820      In  0.81121858  0.54250391  0.64397871     1.36900
C821        C  0.83063659  0.56610733  0.69121372     0.79500
O822        O  0.82350950  0.50012003  0.66086894    -0.59000
O823        O  0.84941430  0.51818342  0.62904515    -0.49900
C824        C  0.76315533  0.51653940  0.63131869     0.72100
O825        O  0.76772322  0.52747223  0.65533257    -0.44700
C826        C  0.81447770  0.58802064  0.61190007     0.76900
O827        O  0.80486192  0.55994297  0.68837196    -0.56600
O828        O  0.82675319  0.56507704  0.60564135    -0.46700
O829        O  0.84565188  0.56057913  0.66996512    -0.53000
C830        C  0.84539173  0.49790052  0.64590648     0.87000
O831        O  0.78234386  0.52064949  0.61332823    -0.54900
O832        O  0.79835994  0.58677993  0.63303483    -0.58200
In833      In  0.83290946  0.81742234  0.44654235     1.36900
C834        C  0.78599906  0.83691821  0.42350729     0.79500
O835        O  0.81388053  0.81932953  0.48928831    -0.59000
O836        O  0.84120383  0.85321166  0.47744963    -0.49900
C837        C  0.85495097  0.77023697  0.46708370     0.72100
O838        O  0.82937906  0.77151548  0.45935999    -0.44700
C839        C  0.86342297  0.82566460  0.40084984     0.76900
O840        O  0.78967023  0.81051182  0.42709583    -0.56600
O841        O  0.86808577  0.83906279  0.42371732    -0.46700
O842        O  0.80603955  0.85238776  0.43181298    -0.53000
C843        C  0.82499761  0.84270908  0.49593124     0.87000
O844        O  0.86920446  0.79237513  0.46260332    -0.54900
O845        O  0.84448025  0.80689782  0.40215053    -0.58200
In846      In  0.90933982  0.89514037  0.29663419     1.36900
C847        C  0.88833065  0.94359120  0.31582779     0.79500
O848        O  0.90618808  0.91254513  0.25323114    -0.59000
O849        O  0.87369797  0.88434526  0.26660517    -0.49900
C850        C  0.95599798  0.87257962  0.27549940     0.72100
O851        O  0.95470032  0.89852814  0.28269032    -0.44700
C852        C  0.90231095  0.86678979  0.34405796     0.76900
O853        O  0.91473441  0.94033772  0.31298559    -0.56600
O854        O  0.88930737  0.86039308  0.32146429    -0.46700
O855        O  0.87377596  0.92205418  0.30970328    -0.53000
C856        C  0.88317125  0.90050057  0.24746095     0.87000
O857        O  0.93433186  0.85817140  0.28116882    -0.54900
O858        O  0.92007988  0.88662350  0.34181713    -0.58200
In859      In  0.69144455  0.40970952  0.59246624     1.36900
C860        C  0.65993400  0.39420928  0.54856599     0.79500
O861        O  0.72019538  0.38150778  0.56770506    -0.59000
O862        O  0.72941915  0.38716095  0.61115858    -0.49900
C863        C  0.71678086  0.46014835  0.59720816     0.72100
O864        O  0.71321511  0.44790508  0.57373349    -0.44700
C865        C  0.65291585  0.40056971  0.63191709     0.76900
O866        O  0.66705007  0.41984477  0.55235564    -0.56600
O867        O  0.67599119  0.38738275  0.63117991    -0.46700
O868        O  0.66795568  0.37750725  0.56772362    -0.53000
C869        C  0.73622031  0.37569325  0.58801105     0.87000
O870        O  0.70574193  0.44757740  0.61786753    -0.54900
O871        O  0.65024917  0.41969378  0.61346602    -0.58200
In872      In  0.53848313  0.34924823  0.67153720     1.36900
C873        C  0.56318561  0.30163925  0.65391919     0.79500
O874        O  0.49622285  0.32912680  0.66939573    -0.59000
O875        O  0.50823658  0.35604692  0.63539477    -0.49900
C876        C  0.51773957  0.37026323  0.71949422     0.72100
O877        O  0.52568264  0.34467572  0.71748938    -0.44700
C878        C  0.57971648  0.38408361  0.65809817     0.76900
O879        O  0.56122000  0.30739575  0.68008971    -0.56600
O880        O  0.55528615  0.38631757  0.64776921    -0.46700
O881        O  0.55291124  0.32015453  0.63784148    -0.53000
C882        C  0.49000040  0.33953575  0.64570879     0.87000
O883        O  0.52236643  0.38510428  0.69788299    -0.54900
O884        O  0.58248198  0.36527226  0.67692676    -0.58200
In885      In  0.37531425  0.19862847  0.06799604     1.36900
C886        C  0.42177150  0.17225990  0.08442114     0.79500
O887        O  0.39826158  0.23920711  0.07203520    -0.59000
O888        O  0.36883724  0.22930287  0.10463269    -0.49900
C889        C  0.35456805  0.22334878  0.02215315     0.72100
O890        O  0.37937743  0.21347283  0.02292019    -0.44700
C891        C  0.34345363  0.15354861  0.07529612     0.76900
O892        O  0.41680081  0.17687799  0.05847213    -0.56600
O893        O  0.34008497  0.17596228  0.08986741    -0.46700
O894        O  0.40304162  0.18102905  0.10120401    -0.53000
C895        C  0.38711687  0.24640982  0.09514689     0.87000
O896        O  0.33997666  0.21859462  0.04395429    -0.54900
O897        O  0.36134354  0.15530716  0.05564643    -0.58200
In898      In  0.30481898  0.04809831  0.14676171     1.36900
C899        C  0.32589496  0.07052672  0.19349373     0.79500
O900        O  0.30887173  0.00512166  0.16479997    -0.59000
O901        O  0.34201802  0.01907213  0.13774896    -0.49900
C902        C  0.25849951  0.02487512  0.12568658     0.72100
O903        O  0.26009224  0.03271036  0.15139054    -0.44700
C904        C  0.30832639  0.09549020  0.11775217     0.76900
O905        O  0.29967527  0.06560600  0.19125266    -0.56600
O906        O  0.32136499  0.07316385  0.11032466    -0.46700
O907        O  0.34031917  0.06418578  0.17197490    -0.53000
C908        C  0.33237447  0.99975952  0.15365123     0.87000
O909        O  0.27969645  0.03088171  0.11073002    -0.54900
O910        O  0.29224108  0.09282788  0.13885406    -0.58200
In911      In  0.33459292  0.33171611  0.94723290     1.36900
C912        C  0.29108719  0.36003112  0.92677193     0.79500
O913        O  0.31437893  0.33418808  0.98905090    -0.59000
O914        O  0.34684742  0.36440495  0.98006657    -0.49900
C915        C  0.35146362  0.28246008  0.96790602     0.72100
O916        O  0.32632852  0.28621903  0.95947955    -0.44700
C917        C  0.36555953  0.33535808  0.90148347     0.76900
O918        O  0.29097972  0.33305820  0.92722630    -0.56600
O919        O  0.37220769  0.34812723  0.92423709    -0.46700
O920        O  0.31332011  0.37154957  0.93578297    -0.53000
C921        C  0.32844318  0.35538059  0.99730166     0.87000
O922        O  0.36786895  0.30318250  0.96402581    -0.54900
O923        O  0.34395757  0.31975833  0.90282619    -0.58200
In924      In  0.41515203  0.40004702  0.79784098     1.36900
C925        C  0.39450989  0.44720645  0.82028664     0.79500
O926        O  0.41105425  0.41846282  0.75496447    -0.59000
O927        O  0.37942751  0.38913866  0.76815302    -0.49900
C928        C  0.46174104  0.37810802  0.77610593     0.72100
O929        O  0.46022486  0.40401509  0.78339648    -0.44700
C930        C  0.40838527  0.37102462  0.84458902     0.76900
O931        O  0.42085730  0.44401902  0.81697780    -0.56600
O932        O  0.39531836  0.36488961  0.82195903    -0.46700
O933        O  0.37968852  0.42663813  0.81189109    -0.53000
C934        C  0.38842351  0.40568195  0.74913079     0.87000
O935        O  0.44026159  0.36344199  0.78182535    -0.54900
O936        O  0.42644094  0.39058817  0.84253126    -0.58200
In937      In  0.90913669  0.09397521  0.18364976     1.36900
C938        C  0.89031748  0.04542209  0.16168189     0.79500
O939        O  0.90379553  0.07817616  0.22737521    -0.59000
O940        O  0.87107509  0.10407945  0.21063799    -0.49900
C941        C  0.95617835  0.11396159  0.20685549     0.72100
O942        O  0.95350202  0.08809827  0.19982697    -0.44700
C943        C  0.90292094  0.12533092  0.13819030     0.76900
O944        O  0.91642622  0.04952848  0.16562984    -0.56600
O945        O  0.88953851  0.13028262  0.16085133    -0.46700
O946        O  0.87493102  0.06612916  0.16828643    -0.53000
C947        C  0.87993703  0.08921375  0.23099863     0.87000
O948        O  0.93566800  0.12956871  0.20019989    -0.54900
O949        O  0.92083789  0.10560823  0.13957897    -0.58200
In950      In  0.83027371  0.16393221  0.03502718     1.36900
C951        C  0.78900024  0.13154343  0.05410476     0.79500
O952        O  0.81201635  0.16114509  0.99211436    -0.59000
O953        O  0.84611582  0.13317425  0.00180935    -0.49900
C954        C  0.84037235  0.21561803  0.01594376     0.72100
O955        O  0.81626199  0.20816466  0.02475267    -0.44700
C956        C  0.86049049  0.16167336  0.08152142     0.76900
O957        O  0.78694474  0.15840044  0.05444768    -0.56600
O958        O  0.86886281  0.15059311  0.05850293    -0.46700
O959        O  0.81185791  0.12198983  0.04453833    -0.53000
C960        C  0.82789524  0.14131875  0.98394475     0.87000
O961        O  0.85959325  0.19730948  0.01904014    -0.54900
O962        O  0.83772031  0.17538961  0.08002041    -0.58200
In963      In  0.19015279  0.06923733  0.38648834     1.36900
C964        C  0.17245268  0.09984865  0.42990233     0.79500
O965        O  0.23315654  0.07264791  0.40372334    -0.59000
O966        O  0.22119809  0.10216127  0.37153201    -0.49900
C967        C  0.21112727  0.01964887  0.37102684     0.72100
O968        O  0.20363031  0.02458369  0.39639238    -0.44700
C969        C  0.14269808  0.07136124  0.35817482     0.76900
O970        O  0.17359559  0.07293943  0.43148936    -0.56600
O971        O  0.16501128  0.08309945  0.34921206    -0.46700
O972        O  0.17942339  0.11011894  0.40635281    -0.53000
C973        C  0.23975991  0.09384920  0.38896193     0.87000
O974        O  0.20553866  0.03910194  0.35359303    -0.54900
O975        O  0.14531262  0.05714606  0.38066022    -0.58200
In976      In  0.03826834  0.13654792  0.31080302     1.36900
C977        C  0.06213925  0.18362359  0.33047668     0.79500
O978        O  0.00111674  0.16011086  0.32700522    -0.59000
O979        O  0.00773233  0.11841700  0.34271293    -0.49900
C980        C  0.01339791  0.11880471  0.26325394     0.72100
O981        O  0.02042296  0.14449208  0.26687390    -0.44700
C982        C  0.08438587  0.10611989  0.31653947     0.76900
O983        O  0.05577928  0.18101882  0.30448740    -0.56600
O984        O  0.06281594  0.10230476  0.33175306    -0.46700
O985        O  0.05733028  0.16194553  0.34526745    -0.53000
C986        C  0.99314235  0.14080540  0.34352054     0.87000
O987        O  0.02056551  0.10251210  0.28299851    -0.54900
O988        O  0.08158890  0.12418273  0.29706994    -0.58200
In989      In  0.80427292  0.43443389  0.83388891     1.36900
C990        C  0.82361879  0.40727217  0.78860502     0.79500
O991        O  0.81208598  0.47617245  0.81374884    -0.59000
O992        O  0.84193747  0.46272130  0.84438214    -0.49900
C993        C  0.75586856  0.45911023  0.84778217     0.72100
O994        O  0.76033017  0.44893959  0.82339012    -0.44700
C995        C  0.80829896  0.39041307  0.86792485     0.76900
O996        O  0.79798020  0.41436081  0.79056413    -0.56600
O997        O  0.82136812  0.41339204  0.87265036    -0.46700
O998        O  0.83852361  0.41388785  0.80967430    -0.53000
C999        C  0.83462670  0.48144313  0.82675304     0.87000
O1000       O  0.77535382  0.45481670  0.86548122    -0.54900
O1001       O  0.79131506  0.39103545  0.84738444    -0.58200
In1002     In  0.88272271  0.29177688  0.91591877     1.36900
C1003       C  0.93417052  0.31011628  0.90310207     0.79500
O1004       O  0.88839876  0.27316224  0.87205880    -0.59000
O1005       O  0.86865543  0.24795961  0.90308121    -0.49900
C1006       C  0.87465672  0.26882860  0.96677437     0.72100
O1007       O  0.89868257  0.27648369  0.95828330    -0.44700
C1008       C  0.84911447  0.33605778  0.90964643     0.76900
O1009       O  0.92977957  0.28619652  0.91412986    -0.56600
O1010       O  0.84624146  0.31360062  0.89517874    -0.46700
O1011       O  0.91271507  0.32565124  0.90127016    -0.53000
C1012       C  0.87895660  0.24916880  0.87865413     0.87000
O1013       O  0.85470043  0.27544079  0.95049688    -0.54900
O1014       O  0.86779120  0.33496287  0.92859656    -0.58200
In1015     In  0.67998184  0.55816012  0.89975216     1.36900
C1016       C  0.65435703  0.57360483  0.94757328     0.79500
O1017       O  0.72107865  0.57288686  0.91741954    -0.59000
O1018       O  0.70235874  0.59846887  0.88594976    -0.49900
C1019       C  0.70672599  0.50993638  0.88687790     0.72100
O1020       O  0.69911169  0.51615066  0.91168458    -0.44700
C1021       C  0.63624299  0.56132910  0.86543462     0.76900
O1022       O  0.66419799  0.54893861  0.94417032    -0.56600
O1023       O  0.65919409  0.57398620  0.86059708    -0.46700
O1024       O  0.65673687  0.58944753  0.92634219    -0.53000
C1025       C  0.72234670  0.59535420  0.90318929     0.87000
O1026       O  0.69917313  0.52753926  0.86833458    -0.54900
O1027       O  0.63654328  0.54494842  0.88651723    -0.58200
In1028     In  0.54083302  0.63963631  0.82001794     1.36900
C1029       C  0.56348438  0.68638485  0.84256480     0.79500
O1030       O  0.49784297  0.65675087  0.82558257    -0.59000
O1031       O  0.51276218  0.62808517  0.85696294    -0.49900
C1032       C  0.51617416  0.62799255  0.77079449     0.72100
O1033       O  0.52715803  0.65188985  0.77612862    -0.44700
C1034       C  0.58395053  0.60448547  0.82432618     0.76900
O1035       O  0.56200132  0.68284454  0.81602534    -0.56600
O1036       O  0.56065432  0.59979233  0.83637882    -0.46700
O1037       O  0.55422516  0.66590033  0.85682346    -0.53000
C1038       C  0.49316743  0.64415633  0.84852731     0.87000
O1039       O  0.52016318  0.60940788  0.78956602    -0.54900
O1040       O  0.58442836  0.62604902  0.80862165    -0.58200
In1041     In  0.37753200  0.78369027  0.41487284     1.36900
C1042       C  0.42292763  0.81133486  0.39794835     0.79500
O1043       O  0.40107595  0.74358501  0.40965931    -0.59000
O1044       O  0.36939658  0.75255691  0.37901947    -0.49900
C1045       C  0.36095609  0.75927877  0.46249566     0.72100
O1046       O  0.38551105  0.76924685  0.45952080    -0.44700
C1047       C  0.34301634  0.82633097  0.40512961     0.76900
O1048       O  0.41762779  0.80811117  0.42399877    -0.56600
O1049       O  0.34019932  0.80253247  0.39299839    -0.46700
O1050       O  0.40514821  0.80041116  0.38133840    -0.53000
C1051       C  0.38836521  0.73579844  0.38756768     0.87000
O1052       O  0.34440242  0.76412435  0.44219997    -0.54900
O1053       O  0.36191667  0.82738526  0.42395497    -0.58200
In1054     In  0.31956172  0.94607257  0.35336007     1.36900
C1055       C  0.34594258  0.92299439  0.30998210     0.79500
O1056       O  0.32056813  0.98703222  0.33057191    -0.59000
O1057       O  0.35275111  0.97935901  0.36128034    -0.49900
C1058       C  0.27063997  0.96648373  0.37082097     0.72100
O1059       O  0.27354758  0.95590066  0.34622238    -0.44700
C1060       C  0.32728149  0.90289162  0.38750296     0.76900
O1061       O  0.31917393  0.92357988  0.31072685    -0.56600
O1062       O  0.33829249  0.92694286  0.39216698    -0.46700
O1063       O  0.35817572  0.93327376  0.33132341    -0.53000
C1064       C  0.34283293  0.99560230  0.34242914     0.87000
O1065       O  0.29210495  0.96485751  0.38652196    -0.54900
O1066       O  0.31091763  0.90162667  0.36637171    -0.58200
In1067     In  0.40790700  0.58998723  0.70105432     1.36900
C1068       C  0.39272854  0.53837928  0.68393871     0.79500
O1069       O  0.39335518  0.59995718  0.74513206    -0.59000
O1070       O  0.36222831  0.59256742  0.71387582    -0.49900
C1071       C  0.45929419  0.59532381  0.72394176     0.72100
O1072       O  0.44863666  0.57161516  0.71775157    -0.44700
C1073       C  0.40124394  0.62526172  0.65829980     0.76900
O1074       O  0.39779501  0.54443168  0.70939422    -0.56600
O1075       O  0.39026513  0.62958475  0.68222550    -0.46700
O1076       O  0.39824862  0.55786378  0.66664205    -0.53000
C1077       C  0.36757629  0.59665383  0.73961987     0.87000
O1078       O  0.44461888  0.61627744  0.71656363    -0.54900
O1079       O  0.41756043  0.60411890  0.65696107    -0.58200
In1080     In  0.34637747  0.65179097  0.54087766     1.36900
C1081       C  0.29887269  0.63868903  0.56743558     0.79500
O1082       O  0.32516411  0.64300297  0.49976696    -0.59000
O1083       O  0.35435365  0.61236503  0.51441629    -0.49900
C1084       C  0.36265953  0.69995663  0.51655037     0.72100
O1085       O  0.33801147  0.69634991  0.52586802    -0.44700
C1086       C  0.38214224  0.64215528  0.58269506     0.76900
O1087       O  0.30549209  0.66420380  0.56265449    -0.56600
O1088       O  0.38460961  0.63056290  0.55871470    -0.46700
O1089       O  0.31684679  0.62076361  0.55945233    -0.53000
C1090       C  0.33653672  0.61916843  0.49584934     0.87000
O1091       O  0.37922278  0.67959136  0.52104946    -0.54900
O1092       O  0.36255467  0.66018133  0.58460359    -0.58200
In1093     In  0.30937004  0.54885198  0.84949568     1.36900
C1094       C  0.33621365  0.57808054  0.81028381     0.79500
O1095       O  0.29660964  0.59174846  0.86464980    -0.59000
O1096       O  0.32410583  0.56699090  0.89058850    -0.49900
C1097       C  0.25951694  0.52430849  0.85701765     0.72100
O1098       O  0.26609177  0.53666865  0.83422269    -0.44700
C1099       C  0.33810289  0.50176349  0.83935947     0.76900
O1100       O  0.31017171  0.57249626  0.80778506    -0.56600
O1101       O  0.34415514  0.51762978  0.86016789    -0.46700
O1102       O  0.34760019  0.56915285  0.83255315    -0.53000
C1103       C  0.31266510  0.59083467  0.88597503     0.87000
O1104       O  0.27751222  0.52662393  0.87665483    -0.54900
O1105       O  0.31733728  0.50966216  0.82485325    -0.58200
In1106     In  0.39420857  0.68673906  0.92683834     1.36900
C1107       C  0.43931588  0.66143791  0.90554206     0.79500
O1108       O  0.38118851  0.64292397  0.93896851    -0.59000
O1109       O  0.35426594  0.66640604  0.91154590    -0.49900
C1110       C  0.38158601  0.71180761  0.97561157     0.72100
O1111       O  0.40580712  0.70180110  0.97065205    -0.44700
C1112       C  0.40076683  0.73369190  0.89666975     0.76900
O1113       O  0.43698788  0.66589782  0.93188810    -0.56600
O1114       O  0.38368344  0.71450842  0.88905336    -0.46700
O1115       O  0.41848519  0.66922656  0.89099915    -0.53000
C1116       C  0.35925070  0.64314389  0.92388192     0.87000
O1117       O  0.36353149  0.70708935  0.95651469    -0.54900
O1118       O  0.41332050  0.72905724  0.91964762    -0.58200
In1119     In  0.03327114  0.34810483  0.82161675     1.36900
C1120       C  0.06437569  0.30858894  0.84635366     0.79500
O1121       O  0.07441724  0.36398099  0.80482798    -0.59000
O1122       O  0.05381141  0.38823437  0.83682064    -0.49900
C1123       C  0.00626668  0.34962944  0.77174329     0.72100
O1124       O  0.01612000  0.32700031  0.78195645    -0.44700
C1125       C  0.98973168  0.34496555  0.85696957     0.76900
O1126       O  0.05566599  0.30554493  0.82111831    -0.56600
O1127       O  0.99957634  0.36853187  0.84904090    -0.46700
O1128       O  0.05784068  0.33175517  0.85793525    -0.53000
C1129       C  0.07565888  0.38458421  0.82194393     0.87000
O1130       O  0.01158621  0.37150539  0.78621747    -0.54900
O1131       O  0.00167075  0.32365816  0.84633182    -0.58200
In1132     In  0.17704550  0.42426204  0.89545478     1.36900
C1133       C  0.15284153  0.40325584  0.94156163     0.79500
O1134       O  0.13369696  0.43934085  0.88413229    -0.59000
O1135       O  0.15409728  0.41069636  0.85596451    -0.49900
C1136       C  0.20513465  0.47260245  0.88727443     0.72100
O1137       O  0.19337489  0.46655269  0.91042353    -0.44700
C1138       C  0.22118481  0.38941369  0.89854355     0.76900
O1139       O  0.15862445  0.42934738  0.93947018    -0.56600
O1140       O  0.20226518  0.38613449  0.87996443    -0.46700
O1141       O  0.15840077  0.38872939  0.91984164    -0.53000
C1142       C  0.13181710  0.42391804  0.86234651     0.87000
O1143       O  0.20071832  0.45493735  0.86757997    -0.54900
O1144       O  0.21772430  0.41070481  0.91434816    -0.58200
In1145     In  0.52786285  0.85121457  0.32369276     1.36900
C1146       C  0.55296512  0.80421181  0.34128388     0.79500
O1147       O  0.57114225  0.86835940  0.31742956    -0.59000
O1148       O  0.54447198  0.88822800  0.34805749    -0.49900
C1149       C  0.50582287  0.87277730  0.27694830     0.72100
O1150       O  0.51662119  0.84817968  0.27738054    -0.44700
C1151       C  0.47936688  0.83716540  0.34687304     0.76900
O1152       O  0.55206852  0.81034819  0.31516881    -0.56600
O1153       O  0.49585538  0.85464594  0.35880042    -0.46700
O1154       O  0.54198447  0.82241494  0.35742872    -0.53000
C1155       C  0.56850239  0.88695419  0.33662163     0.87000
O1156       O  0.50831881  0.88672740  0.29964898    -0.54900
O1157       O  0.48732082  0.82812927  0.32306631    -0.58200
In1158     In  0.68336172  0.91894602  0.39271673     1.36900
C1159       C  0.65898475  0.89846232  0.43896262     0.79500
O1160       O  0.63969326  0.92548837  0.37685162    -0.59000
O1161       O  0.66711622  0.89881178  0.35292061    -0.49900
C1162       C  0.70399073  0.96948359  0.37897290     0.72100
O1163       O  0.69404183  0.96428721  0.40322690    -0.44700
C1164       C  0.73163200  0.89234372  0.40179688     0.76900
O1165       O  0.65995611  0.92489156  0.43438085    -0.56600
O1166       O  0.71303476  0.88205832  0.38558487    -0.46700
O1167       O  0.66965984  0.88338096  0.41975519    -0.53000
C1168       C  0.64259785  0.90866716  0.35617980     0.87000
O1169       O  0.70149687  0.94948479  0.36125872    -0.54900
O1170       O  0.72604744  0.91647325  0.41178617    -0.58200
In1171     In  0.88300959  0.19316778  0.39973530     1.36900
C1172       C  0.93461177  0.17740500  0.38459691     0.79500
O1173       O  0.87098695  0.14956045  0.41361115    -0.59000
O1174       O  0.84421469  0.17064314  0.38430795    -0.49900
C1175       C  0.87819877  0.21709191  0.45082777     0.72100
O1176       O  0.90150091  0.20896556  0.44093489    -0.44700
C1177       C  0.87618155  0.23243132  0.35983264     0.76900
O1178       O  0.92890063  0.20210138  0.39305956    -0.56600
O1179       O  0.88201165  0.20708997  0.35387400    -0.46700
O1180       O  0.91450929  0.16004309  0.38613299    -0.53000
C1181       C  0.84955829  0.14822727  0.39789973     0.87000
O1182       O  0.85724786  0.21108481  0.43553900    -0.54900
O1183       O  0.87070635  0.23671664  0.38556093    -0.58200
In1184     In  0.80058713  0.04707925  0.32929914     1.36900
C1185       C  0.82219198  0.07157656  0.28385986     0.79500
O1186       O  0.78814122  0.09116556  0.34149442    -0.59000
O1187       O  0.81768571  0.06933214  0.36753406    -0.49900
C1188       C  0.75202096  0.02164953  0.34110940     0.72100
O1189       O  0.75767001  0.03097707  0.31671927    -0.44700
C1190       C  0.83106966  0.00005374  0.32484162     0.76900
O1191       O  0.79590021  0.06774817  0.28616744    -0.56600
O1192       O  0.83701248  0.01893555  0.34299137    -0.46700
O1193       O  0.83647311  0.06330636  0.30470604    -0.53000
C1194       C  0.80520435  0.09236361  0.36195532     0.87000
O1195       O  0.77012617  0.02752757  0.35984472    -0.54900
O1196       O  0.80970946  0.00518367  0.30994046    -0.58200
In1197     In  0.90726402  0.38421317  0.68795395     1.36900
C1198       C  0.87608235  0.42670295  0.66915529     0.79500
O1199       O  0.92268924  0.37883497  0.64377142    -0.59000
O1200       O  0.89681382  0.34613887  0.66102190    -0.49900
C1201       C  0.95626390  0.37673598  0.71407519     0.72100
O1202       O  0.94940263  0.40003044  0.70270544    -0.44700
C1203       C  0.87912266  0.38504850  0.73587863     0.76900
O1204       O  0.90269603  0.42879477  0.67073395    -0.56600
O1205       O  0.87419274  0.36615519  0.71727985    -0.46700
O1206       O  0.86617751  0.40294094  0.67604973    -0.53000
C1207       C  0.90930732  0.35608322  0.63950140     0.87000
O1208       O  0.93923943  0.35651637  0.70964197    -0.54900
O1209       O  0.89860635  0.40222394  0.73008029    -0.58200
In1210     In  0.84281582  0.31870142  0.53132508     1.36900
C1211       C  0.79237460  0.33093417  0.55221105     0.79500
O1212       O  0.85655681  0.30084411  0.57290472    -0.59000
O1213       O  0.87930624  0.33602204  0.55663280    -0.49900
C1214       C  0.84867477  0.26874804  0.50535515     0.72100
O1215       O  0.82520167  0.27762728  0.51425980    -0.44700
C1216       C  0.84554253  0.35737224  0.48968980     0.76900
O1217       O  0.79551401  0.31543591  0.53056381    -0.56600
O1218       O  0.83369664  0.36225894  0.51293088    -0.46700
O1219       O  0.81495069  0.33853072  0.56401905    -0.53000
C1220       C  0.87534524  0.31925189  0.57709138     0.87000
O1221       O  0.86933291  0.28446827  0.51151984    -0.54900
O1222       O  0.85858525  0.33421465  0.48889618    -0.58200
In1223     In  0.32858481  0.81266442  0.04644112     1.36900
C1224       C  0.28296502  0.83415048  0.07038154     0.79500
O1225       O  0.34049814  0.80163305  0.09066167    -0.59000
O1226       O  0.36609785  0.83132257  0.06835579    -0.49900
C1227       C  0.34269982  0.76289693  0.02421971     0.72100
O1228       O  0.31825834  0.76794978  0.03353266    -0.44700
C1229       C  0.32244015  0.84068733  0.99822669     0.76900
O1230       O  0.28525104  0.80775146  0.06590923    -0.56600
O1231       O  0.34062369  0.84821471  0.01635562    -0.46700
O1232       O  0.30394647  0.84869249  0.06298527    -0.53000
C1233       C  0.36077336  0.81893414  0.09147865     0.87000
O1234       O  0.36037174  0.78257009  0.02818819    -0.54900
O1235       O  0.30850074  0.81892768  0.00461965    -0.58200
In1236     In  0.40429353  0.89318457  0.19301727     1.36900
C1237       C  0.38618987  0.94179920  0.17096827     0.79500
O1238       O  0.41609574  0.88263945  0.14840709    -0.59000
O1239       O  0.38688855  0.85578340  0.16970109    -0.49900
C1240       C  0.45196489  0.87658726  0.21761480     0.72100
O1241       O  0.44703028  0.90236272  0.21214407    -0.44700
C1242       C  0.37174230  0.89512501  0.23863247     0.76900
O1243       O  0.41219012  0.93719866  0.17478446    -0.56600
O1244       O  0.36599762  0.87903136  0.21798019    -0.46700
O1245       O  0.37037244  0.92159023  0.17800173    -0.53000
C1246       C  0.39962207  0.86165854  0.14696141     0.87000
O1247       O  0.43346964  0.85949533  0.20886966    -0.54900
O1248       O  0.39439547  0.90883959  0.23612070    -0.58200
C1249       C  0.37496299  0.82597050  0.11829272    -0.14500
C1250       C  0.39391854  0.84698554  0.12001229    -0.29700
H1251       H  0.36645672  0.81671490  0.13751400     0.14500
H1252       H  0.40237370  0.85634083  0.10082125     0.15100
C1253       C  0.90622179  0.34431554  0.61067092    -0.14500
C1254       C  0.88880697  0.32263107  0.60506200    -0.29700
H1255       H  0.91452588  0.35688997  0.59333255     0.14500
H1256       H  0.88036854  0.31012444  0.62237643     0.15100
C1257       C  0.87611853  0.23465233  0.47673180    -0.14500
C1258       C  0.85113575  0.24349570  0.48686273    -0.29700
H1259       H  0.89549872  0.24345767  0.48528212     0.14500
H1260       H  0.83178269  0.23442315  0.47852974     0.15100
C1261       C  0.83396193  0.12151460  0.39386329    -0.14500
C1262       C  0.81230504  0.11951813  0.37574877    -0.29700
H1263       H  0.84333653  0.10237099  0.40250225     0.14500
H1264       H  0.80302949  0.13866695  0.36701804     0.15100
C1265       C  0.71996688  0.99569252  0.37290472    -0.14500
C1266       C  0.72777355  0.00271784  0.34648839    -0.29700
H1267       H  0.72837978  0.00745364  0.39081965     0.14500
H1268       H  0.71862415  0.99165606  0.32849437     0.15100
C1269       C  0.48938031  0.88407407  0.25297090    -0.14500
C1270       C  0.47611634  0.86677364  0.23468422    -0.29700
H1271       H  0.48405047  0.90649776  0.25341894     0.14500
H1272       H  0.47983588  0.84404487  0.23570922     0.15100
C1273       C  0.59212167  0.90443662  0.34670855    -0.14500
C1274       C  0.61872587  0.89906327  0.33876849    -0.29700
H1275       H  0.58799104  0.91905350  0.36407855     0.14500
H1276       H  0.62294411  0.88375851  0.32202084     0.15100
C1277       C  0.98810617  0.35007647  0.74616548    -0.14500
C1278       C  0.98074812  0.37452436  0.73345268    -0.29700
H1279       H  0.97853253  0.33025447  0.73940526     0.14500
H1280       H  0.99088157  0.39417877  0.73989001     0.15100
C1281       C  0.10206017  0.40047415  0.82658679    -0.14500
C1282       C  0.10462022  0.41925618  0.84787335    -0.29700
H1283       H  0.12083575  0.39250121  0.81610902     0.14500
H1284       H  0.08586121  0.42723139  0.85837586     0.15100
C1285       C  0.37561902  0.73011534  0.00033877    -0.14500
C1286       C  0.34912785  0.73724593  0.00740175    -0.29700
H1287       H  0.39328912  0.74056443  0.01062097     0.14500
H1288       H  0.33151917  0.72602864  0.99784251     0.15100
C1289       C  0.23406420  0.50627562  0.85946292    -0.14500
C1290       C  0.22463431  0.49697932  0.88460913    -0.29700
H1291       H  0.22458701  0.49834134  0.84006134     0.14500
H1292       H  0.23339591  0.50576827  0.90398743     0.15100
C1293       C  0.32032606  0.61681921  0.90160347    -0.14500
C1294       C  0.34257062  0.61719231  0.91910578    -0.29700
H1295       H  0.31145901  0.63670721  0.89417768     0.14500
H1296       H  0.35166149  0.59732553  0.92630605     0.15100
C1297       C  0.34579517  0.59433984  0.76168167    -0.14500
C1298       C  0.35349852  0.59227081  0.78883048    -0.29700
H1299       H  0.32442294  0.58905629  0.75531742     0.14500
H1300       H  0.37522191  0.59661829  0.79473461     0.15100
C1301       C  0.39312128  0.64202234  0.63341199    -0.14500
C1302       C  0.39920385  0.63319893  0.60709128    -0.29700
H1303       H  0.37791027  0.65896976  0.63662087     0.14500
H1304       H  0.41382296  0.61573368  0.60388138     0.15100
C1305       C  0.35309220  0.89904058  0.26333303    -0.14500
C1306       C  0.36297923  0.91296060  0.28604277    -0.29700
H1307       H  0.33129249  0.89216261  0.26229992     0.14500
H1308       H  0.38516966  0.91859933  0.28687793     0.15100
C1309       C  0.35248245  0.74117818  0.48641633    -0.14500
C1310       C  0.37136670  0.72493771  0.49997631    -0.29700
H1311       H  0.33011711  0.73732279  0.48942601     0.14500
H1312       H  0.39364734  0.72726477  0.49525725     0.15100
C1313       C  0.32723828  0.85153132  0.39593895    -0.14500
C1314       C  0.33500136  0.87772672  0.40412419    -0.29700
H1315       H  0.31214513  0.84881048  0.37881995     0.14500
H1316       H  0.35069608  0.88045740  0.42068448     0.15100
C1317       C  0.45302785  0.82689124  0.35929321    -0.14500
C1318       C  0.44809142  0.82616683  0.38725786    -0.29700
H1319       H  0.43827095  0.81686888  0.34475362     0.14500
H1320       H  0.46321590  0.83498891  0.40215705     0.15100
C1321       C  0.46677502  0.64915249  0.86378593    -0.14500
C1322       C  0.46472634  0.64933803  0.89214875    -0.29700
H1323       H  0.44931858  0.65686172  0.85108206     0.14500
H1324       H  0.48253424  0.64327690  0.90522758     0.15100
C1325       C  0.49744436  0.62335861  0.74615666    -0.14500
C1326       C  0.48538693  0.59802668  0.74089062    -0.29700
H1327       H  0.49048399  0.64194823  0.73460394     0.14500
H1328       H  0.49267052  0.57932458  0.75205129     0.15100
C1329       C  0.61014653  0.56768833  0.84987674    -0.14500
C1330       C  0.60964538  0.58811544  0.83019665    -0.29700
H1331       H  0.59053750  0.55938963  0.85833402     0.14500
H1332       H  0.62930504  0.59646378  0.82188934     0.15100
C1333       C  0.96155779  0.31776162  0.89067757    -0.14500
C1334       C  0.96562235  0.34207721  0.87638535    -0.29700
H1335       H  0.97766064  0.30139925  0.89020385     0.14500
H1336       H  0.95014384  0.35899450  0.87725909     0.15100
C1337       C  0.73103234  0.47691335  0.85422186    -0.14500
C1338       C  0.72514935  0.48540429  0.88076672    -0.29700
H1339       H  0.71925860  0.48559605  0.83655596     0.14500
H1340       H  0.73633247  0.47600458  0.89845723     0.15100
C1341       C  0.81449014  0.36381072  0.88290428    -0.14500
C1342       C  0.83417258  0.36260298  0.90318397    -0.29700
H1343       H  0.80599474  0.34429319  0.87398796     0.14500
H1344       H  0.84251064  0.38209365  0.91230047     0.15100
C1345       C  0.83594095  0.39366014  0.76325041    -0.14500
C1346       C  0.86370769  0.38813558  0.76253304    -0.29700
H1347       H  0.82320335  0.39139911  0.74428680     0.14500
H1348       H  0.87648262  0.39232984  0.78115854     0.15100
C1349       C  0.96856590  0.14454916  0.36210471    -0.14500
C1350       C  0.96191208  0.17058525  0.37163171    -0.29700
H1351       H  0.95545746  0.12634952  0.36702664     0.14500
H1352       H  0.97604286  0.18823557  0.36749550     0.15100
C1353       C  0.22780746  0.99466037  0.36226511    -0.14500
C1354       C  0.24527603  0.98184120  0.38051010    -0.29700
H1355       H  0.23027706  0.99083399  0.33969908     0.14500
H1356       H  0.24425234  0.98742412  0.40283347     0.15100
C1357       C  0.11496539  0.07582273  0.34511747    -0.14500
C1358       C  0.11166025  0.09272925  0.32263053    -0.29700
H1359       H  0.09663528  0.06837956  0.35669877     0.14500
H1360       H  0.12996244  0.10023137  0.31105353     0.15100
C1361       C  0.84489227  0.24234348  0.00030639    -0.14500
C1362       C  0.87069543  0.25060348  0.99186628    -0.29700
H1363       H  0.82637018  0.25296773  0.99202111     0.14500
H1364       H  0.88924286  0.24036638  0.00056981     0.15100
C1365       C  0.83587162  0.08359578  0.25855408    -0.14500
C1366       C  0.86413836  0.08381735  0.25704859    -0.29700
H1367       H  0.82312872  0.08982901  0.24051502     0.14500
H1368       H  0.87648215  0.07618830  0.27484126     0.15100
C1369       C  0.98007581  0.12522213  0.22360094    -0.14500
C1370       C  0.99646695  0.10814978  0.23916705    -0.29700
H1371       H  0.98124415  0.14805666  0.22677279     0.14500
H1372       H  0.99397170  0.08528419  0.23724766     0.15100
C1373       C  0.89642680  0.13936488  0.11125641    -0.14500
C1374       C  0.87445121  0.15696549  0.10886983    -0.29700
H1375       H  0.90697816  0.13153948  0.09236172     0.14500
H1376       H  0.86369625  0.16453270  0.12775528     0.15100
C1377       C  0.38138662  0.47291511  0.83257887    -0.14500
C1378       C  0.35318863  0.47566314  0.83180446    -0.29700
H1379       H  0.39454827  0.48996374  0.84064645     0.14500
H1380       H  0.34051740  0.45915706  0.82195789     0.15100
C1381       C  0.38016414  0.33987479  0.87450417    -0.14500
C1382       C  0.40134569  0.35843464  0.87207605    -0.29700
H1383       H  0.37064925  0.33070412  0.85561618     0.14500
H1384       H  0.41083574  0.36773646  0.89090769     0.15100
C1385       C  0.26716331  0.37801826  0.91838008    -0.14500
C1386       C  0.24516085  0.36971869  0.90248792    -0.29700
H1387       H  0.26788058  0.39974632  0.92611353     0.14500
H1388       H  0.24451106  0.34865047  0.89317930     0.15100
C1389       C  0.37457114  0.96876913  0.15994058    -0.14500
C1390       C  0.34648665  0.97264999  0.15964892    -0.29700
H1391       H  0.38872481  0.98580570  0.15394714     0.14500
H1392       H  0.33283051  0.95577697  0.16714434     0.15100
C1393       C  0.34373649  0.24122882  0.99892003    -0.14500
C1394       C  0.36123422  0.25693889  0.98308838    -0.29700
H1395       H  0.32125938  0.24552207  0.99836357     0.14500
H1396       H  0.38384157  0.25424490  0.98549761     0.15100
C1397       C  0.32996057  0.12631152  0.08211634    -0.14500
C1398       C  0.31318429  0.12335098  0.10465150    -0.29700
H1399       H  0.33724244  0.10759035  0.07075943     0.14500
H1400       H  0.30572856  0.14202041  0.11596750     0.15100
C1401       C  0.50216284  0.38208599  0.74387888    -0.14500
C1402       C  0.48545859  0.36582066  0.75996099    -0.29700
H1403       H  0.50012509  0.40503101  0.74508076     0.14500
H1404       H  0.48580984  0.34291527  0.75713160     0.15100
C1405       C  0.76159301  0.35813263  0.58430384    -0.14500
C1406       C  0.76467251  0.34152453  0.56128712    -0.29700
H1407       H  0.77880103  0.36078610  0.59925309     0.14500
H1408       H  0.74703723  0.33827959  0.54695481     0.15100
C1409       C  0.63016760  0.39230054  0.65131963    -0.14500
C1410       C  0.60350642  0.40054077  0.64687477    -0.29700
H1411       H  0.63462033  0.37551061  0.66638992     0.14500
H1412       H  0.59891172  0.41639687  0.63087330     0.15100
C1413       C  0.84680175  0.97352225  0.32070091    -0.14500
C1414       C  0.87474857  0.97052533  0.32456294    -0.29700
H1415       H  0.83486940  0.95622266  0.31127848     0.14500
H1416       H  0.88747697  0.98813428  0.33211173     0.15100
C1417       C  0.87707553  0.83268069  0.37383158    -0.14500
C1418       C  0.89580801  0.85380795  0.37159000    -0.29700
H1419       H  0.86894195  0.82245414  0.35483249     0.14500
H1420       H  0.90415746  0.86394910  0.39053372     0.15100
C1421       C  0.76031887  0.84939267  0.41102341    -0.14500
C1422       C  0.75775633  0.87778468  0.40967217    -0.29700
H1423       H  0.74313927  0.83563877  0.40444715     0.14500
H1424       H  0.77461962  0.89123687  0.41761243     0.15100
C1425       C  0.85700959  0.45010838  0.66173858    -0.14500
C1426       C  0.86519783  0.47398449  0.64885254    -0.29700
H1427       H  0.83508298  0.44766224  0.66787955     0.14500
H1428       H  0.88664814  0.47628377  0.64123550     0.15100
C1429       C  0.73857996  0.49817146  0.62572199    -0.14500
C1430       C  0.73457259  0.48564764  0.60041897    -0.29700
H1431       H  0.72571426  0.49201957  0.64369430     0.14500
H1432       H  0.74727451  0.49196776  0.58238689     0.15100
C1433       C  0.86739800  0.74591354  0.48217356    -0.14500
C1434       C  0.85167755  0.72879534  0.49835713    -0.29700
H1435       H  0.89019590  0.74536141  0.48419517     0.14500
H1436       H  0.82889397  0.73101224  0.49814428     0.15100
C1437       C  0.84129829  0.61674999  0.57844981    -0.14500
C1438       C  0.82079628  0.61500000  0.59782087    -0.29700
H1439       H  0.85037673  0.59752943  0.56949855     0.14500
H1440       H  0.81181878  0.63422607  0.60686460     0.15100
C1441       C  0.99564490  0.87573359  0.24218550    -0.14500
C1442       C  0.97962039  0.85996373  0.25943226    -0.29700
H1443       H  0.99337011  0.89868650  0.24251620     0.14500
H1444       H  0.98026489  0.83696937  0.25758469     0.15100
C1445       C  0.25758958  0.84757415  0.08239956    -0.14500
C1446       C  0.25546388  0.87598613  0.08257547    -0.29700
H1447       H  0.23999200  0.83441811  0.08896149     0.14500
H1448       H  0.27263696  0.88879579  0.07436177     0.15100
C1449       C  0.23501657  0.00789670  0.11391928    -0.14500
C1450       C  0.22027571  0.98992201  0.13016232    -0.29700
H1451       H  0.23336524  0.00627156  0.09102023     0.14500
H1452       H  0.22372854  0.98998168  0.15291508     0.15100
C1453       C  0.10882580  0.90533253  0.14013649    -0.14500
C1454       C  0.10645043  0.88406691  0.15868832    -0.29700
H1455       H  0.09002427  0.91540346  0.13171387     0.14500
H1456       H  0.12524866  0.87410004  0.16724277     0.15100
C1457       C  0.15020818  0.85771050  0.01818528    -0.14500
C1458       C  0.14924663  0.88609593  0.02161714    -0.29700
H1459       H  0.15816548  0.84466710  0.03530966     0.14500
H1460       H  0.14289436  0.89970495  0.00428081     0.15100
C1461       C  0.09419057  0.82170741  0.86982547    -0.14500
C1462       C  0.07300059  0.84024181  0.86722684    -0.29700
H1463       H  0.10420890  0.81300697  0.85101515     0.14500
H1464       H  0.06315958  0.84908249  0.88606527     0.15100
C1465       C  0.32361899  0.39608774  0.03027546    -0.14500
C1466       C  0.32262526  0.36807141  0.02503936    -0.29700
H1467       H  0.33119280  0.41072856  0.01430495     0.14500
H1468       H  0.31329756  0.35397034  0.04057800     0.15100
C1469       C  0.37488311  0.40754123  0.14973638    -0.14500
C1470       C  0.34802865  0.40304377  0.15739496    -0.29700
H1471       H  0.37970728  0.42258131  0.13304683     0.14500
H1472       H  0.34315544  0.38740001  0.17351004     0.15100
C1473       C  0.39372919  0.27813629  0.13705061    -0.14500
C1474       C  0.39590031  0.27288178  0.10913995    -0.29700
H1475       H  0.38354986  0.26302554  0.15099684     0.14500
H1476       H  0.40732059  0.28771554  0.09584359     0.15100
C1477       C  0.47488043  0.36650325  0.24408385    -0.14500
C1478       C  0.48587317  0.39214129  0.25004657    -0.29700
H1479       H  0.48102386  0.34820862  0.25655770     0.14500
H1480       H  0.47921822  0.41059556  0.23809175     0.15100
C1481       C  0.64175045  0.35569645  0.51922678    -0.14500
C1482       C  0.64516745  0.38377874  0.52295670    -0.29700
H1483       H  0.64814492  0.34128287  0.53592371     0.14500
H1484       H  0.64039139  0.39845215  0.50596292     0.15100
C1485       C  0.58359844  0.33177471  0.37076298    -0.14500
C1486       C  0.56431951  0.35248667  0.36947378    -0.29700
H1487       H  0.59237883  0.32307843  0.35132768     0.14500
H1488       H  0.55536875  0.36121119  0.38880342     0.15100
C1489       C  0.06455386  0.76548516  0.13965317    -0.14500
C1490       C  0.06488628  0.76191795  0.11136557    -0.29700
H1491       H  0.07140989  0.74859013  0.15359377     0.14500
H1492       H  0.05686476  0.77868322  0.09787353     0.15100
C1493       C  0.10791568  0.74171831  0.98120183    -0.14500
C1494       C  0.12327771  0.72840352  0.00094557    -0.29700
H1495       H  0.08529011  0.73829150  0.98037868     0.14500
H1496       H  0.14543295  0.73372503  0.00337429     0.15100
C1497       C  0.24622427  0.49994231  0.12375844    -0.14500
C1498       C  0.23269566  0.50326034  0.14850997    -0.29700
H1499       H  0.24111253  0.51356413  0.10600005     0.14500
H1500       H  0.23816264  0.48995801  0.16640485     0.15100
C1501       C  0.14633358  0.61520239  0.10890899    -0.14500
C1502       C  0.13041572  0.61709555  0.08555866    -0.29700
H1503       H  0.15296024  0.63434598  0.11998967     0.14500
H1504       H  0.12409293  0.59792106  0.07434826     0.15100
C1505       C  0.57451638  0.27037790  0.61421367    -0.14500
C1506       C  0.57576538  0.27524212  0.64232042    -0.29700
H1507       H  0.56464060  0.28600632  0.60060680     0.14500
H1508       H  0.58435495  0.25942351  0.65653296     0.15100
C1509       C  0.62047159  0.23156311  0.49968221    -0.14500
C1510       C  0.60274116  0.24388237  0.48128805    -0.29700
H1511       H  0.64273980  0.23687749  0.49900260     0.14500
H1512       H  0.58021339  0.24039436  0.48335302     0.15100
C1513       C  0.65452527  0.11928977  0.60752788    -0.14500
C1514       C  0.63701294  0.12241122  0.58555342    -0.29700
H1515       H  0.66229839  0.13784533  0.61885918     0.14500
H1516       H  0.62918547  0.10374811  0.57441953     0.15100
C1517       C  0.97998895  0.85255893  0.74835489    -0.14500
C1518       C  0.99097769  0.87812805  0.75455735    -0.29700
H1519       H  0.98825825  0.83375838  0.75864798     0.14500
H1520       H  0.98216839  0.89709538  0.74505531     0.15100
C1521       C  0.90106738  0.76572220  0.63872843    -0.14500
C1522       C  0.90193194  0.76341080  0.61040491    -0.29700
H1523       H  0.89369410  0.74817391  0.65160128     0.14500
H1524       H  0.91085527  0.78051296  0.59790739     0.15100
C1525       C  0.74840127  0.98543249  0.63612283    -0.14500
C1526       C  0.73400892  0.00306471  0.61926632    -0.29700
H1527       H  0.74425844  0.98547922  0.65874701     0.14500
H1528       H  0.73664951  0.00157145  0.59645332     0.15100
C1529       C  0.85948219  0.90292889  0.64736653    -0.14500
C1530       C  0.86214558  0.88320249  0.66751131    -0.29700
H1531       H  0.87818547  0.91231257  0.63800347     0.14500
H1532       H  0.84344086  0.87375006  0.67680008     0.15100
C1533       C  0.81953865  0.88422915  0.52795582    -0.14500
C1534       C  0.81859495  0.85608659  0.52330154    -0.29700
H1535       H  0.82655898  0.89855557  0.51145902     0.14500
H1536       H  0.81003585  0.84220746  0.53946747     0.15100
C1537       C  0.00609627  0.63550965  0.11047802    -0.14500
C1538       C  0.00800938  0.65122339  0.08681271    -0.29700
H1539       H  0.02528873  0.62800338  0.12048689     0.14500
H1540       H  0.98920673  0.65883612  0.07622514     0.15100
C1541       C  0.86476518  0.59646165  0.16277159    -0.14500
C1542       C  0.86077476  0.57432879  0.14537146    -0.29700
H1543       H  0.84668823  0.60732772  0.17184364     0.14500
H1544       H  0.87882450  0.56322930  0.13653013     0.15100
C1545       C  0.74157750  0.49311483  0.11128839    -0.14500
C1546       C  0.73280107  0.48431649  0.13684769    -0.29700
H1547       H  0.73259170  0.48378782  0.09224760     0.14500
H1548       H  0.74199526  0.49332131  0.15593770     0.15100
C1549       C  0.62912338  0.42486002  0.22603950    -0.14500
C1550       C  0.61502833  0.40098735  0.23235673    -0.29700
H1551       H  0.62775381  0.44307768  0.24013971     0.14500
H1552       H  0.61680258  0.38226980  0.21900971     0.15100
C1553       C  0.63003571  0.36743568  0.07680816    -0.14500
C1554       C  0.64875576  0.36921924  0.09804015    -0.29700
H1555       H  0.62099417  0.38671350  0.06810082     0.14500
H1556       H  0.65780758  0.35002917  0.10691497     0.15100
C1557       C  0.51257629  0.33138292  0.09745234    -0.14500
C1558       C  0.50935325  0.33030866  0.12570541    -0.29700
H1559       H  0.49597243  0.33978802  0.08406580     0.14500
H1560       H  0.52561359  0.32056520  0.13862520     0.15100
C1561       C  0.12074970  0.55637443  0.23170790    -0.14500
C1562       C  0.10917136  0.58138108  0.23879810    -0.29700
H1563       H  0.11656448  0.53774689  0.24452500     0.14500
H1564       H  0.11391297  0.60040400  0.22681148     0.15100
C1565       C  0.98052674  0.60495505  0.25299989    -0.14500
C1566       C  0.97670032  0.63112467  0.24232444    -0.29700
H1567       H  0.96860324  0.58717462  0.24450456     0.14500
H1568       H  0.98827531  0.64903078  0.25103546     0.15100
C1569       C  0.07724989  0.65189407  0.37739670    -0.14500
C1570       C  0.05794164  0.63120773  0.37574185    -0.29700
H1571       H  0.08544270  0.66127962  0.35809045     0.14500
H1572       H  0.04929365  0.62193474  0.39487916     0.15100
C1573       C  0.12141531  0.89808271  0.72855060    -0.14500
C1574       C  0.11743305  0.91981767  0.71077782    -0.29700
H1575       H  0.13944927  0.88413390  0.72613594     0.14500
H1576       H  0.09834067  0.93240648  0.71248583     0.15100
C1577       C  0.11426735  0.75396172  0.50118983    -0.14500
C1578       C  0.09667788  0.73758009  0.48603200    -0.29700
H1579       H  0.13685277  0.75062998  0.49950823     0.14500
H1580       H  0.07412097  0.73912196  0.48958290     0.15100
C1581       C  0.13313404  0.86825039  0.58032045    -0.14500
C1582       C  0.15341708  0.87019884  0.59993431    -0.29700
H1583       H  0.12476432  0.88736076  0.57063738     0.14500
H1584       H  0.16144880  0.85104932  0.60983436     0.15100
C1585       C  0.01236705  0.83156734  0.60344854    -0.14500
C1586       C  0.00948617  0.83124777  0.63175181    -0.29700
H1587       H  0.99467473  0.83686619  0.58990350     0.14500
H1588       H  0.02691972  0.82410221  0.64480619     0.15100
C1589       C  0.62378578  0.24400131  0.97850714    -0.14500
C1590       C  0.59814153  0.25189703  0.98783624    -0.29700
H1591       H  0.64247906  0.25407351  0.98718593     0.14500
H1592       H  0.57948703  0.24218332  0.97867064     0.15100
C1593       C  0.62760467  0.07285893  0.72219963    -0.14500
C1594       C  0.59942998  0.07119470  0.72467346    -0.29700
H1595       H  0.64054367  0.07932580  0.74005071     0.14500
H1596       H  0.58700208  0.06293610  0.70716283     0.15100
C1597       C  0.56735537  0.13421872  0.86726054    -0.14500
C1598       C  0.58801860  0.15363644  0.86736037    -0.29700
H1599       H  0.55843786  0.12706384  0.88718274     0.14500
H1600       H  0.59723982  0.16048581  0.84746911     0.15100
C1601       C  0.51630550  0.15689788  0.63331069    -0.14500
C1602       C  0.51988550  0.15768668  0.60510918    -0.29700
H1603       H  0.53255240  0.16536471  0.64720352     0.14500
H1604       H  0.50319573  0.15064239  0.59097696     0.15100
C1605       C  0.47284357  0.12173193  0.74947061    -0.14500
C1606       C  0.48107170  0.09561183  0.75720039    -0.29700
H1607       H  0.48086509  0.14015911  0.76073707     0.14500
H1608       H  0.47233783  0.07713717  0.74656714     0.15100
C1609       C  0.25313458  0.98748314  0.60437696    -0.14500
C1610       C  0.24552710  0.97776512  0.63000446    -0.29700
H1611       H  0.24292806  0.97916686  0.58552138     0.14500
H1612       H  0.25607880  0.98572238  0.64882276     0.15100
C1613       C  0.37942438  0.08202321  0.64596109    -0.14500
C1614       C  0.35226758  0.08846209  0.65035594    -0.29700
H1615       H  0.38517088  0.06598626  0.63040357     0.14500
H1616       H  0.34674907  0.10507351  0.66539993     0.15100
C1617       C  0.70892484  0.37650129  0.41205845    -0.14500
C1618       C  0.70441621  0.34838985  0.40984738    -0.29700
H1619       H  0.69297461  0.38984521  0.42182722     0.14500
H1620       H  0.72049316  0.33449829  0.40115437     0.15100
C1621       C  0.82478751  0.39800120  0.46393107    -0.14500
C1622       C  0.84178475  0.37511805  0.46426561    -0.29700
H1623       H  0.81746158  0.40733376  0.48361840     0.14500
H1624       H  0.84934666  0.36636251  0.44438372     0.15100
C1625       C  0.86873111  0.40584685  0.33557098    -0.14500
C1626       C  0.84159216  0.39892396  0.33161926    -0.29700
H1627       H  0.87442964  0.42180543  0.35125621     0.14500
H1628       H  0.83604226  0.38206906  0.31682947     0.15100
C1629       C  0.87889514  0.28260864  0.34858288    -0.14500
C1630       C  0.87925052  0.25572371  0.33927421    -0.29700
H1631       H  0.87165489  0.28705314  0.36997650     0.14500
H1632       H  0.88750566  0.25079262  0.31837990     0.15100
C1633       C  0.14289420  0.36181897  0.97053708    -0.14500
C1634       C  0.14203366  0.39014597  0.96774704    -0.29700
H1635       H  0.15040550  0.34886156  0.95302293     0.14500
H1636       H  0.13644142  0.40356098  0.98562390     0.15100
C1637       C  0.20734641  0.35445155  0.08304051    -0.14500
C1638       C  0.21066583  0.38277477  0.08249281    -0.29700
H1639       H  0.22383944  0.34096325  0.09152881     0.14500
H1640       H  0.19453316  0.39586770  0.07275011     0.15100
C1641       C  0.98114320  0.39005469  0.23675925    -0.14500
C1642       C  0.96663955  0.36574605  0.23970661    -0.29700
H1643       H  0.97796252  0.40719313  0.25186269     0.14500
H1644       H  0.96923313  0.34866518  0.22443890     0.15100
C1645       C  0.06524366  0.34864431  0.11695748    -0.14500
C1646       C  0.08589670  0.32926703  0.11591411    -0.29700
H1647       H  0.05633558  0.35689894  0.09746041     0.14500
H1648       H  0.09465715  0.32103918  0.13549641     0.15100
C1649       C  0.10042436  0.47446066  0.13680391    -0.14500
C1650       C  0.07573141  0.47279223  0.15059441    -0.29700
H1651       H  0.11045755  0.45518208  0.12920238     0.14500
H1652       H  0.06539704  0.49186671  0.15824809     0.15100
C1653       C  0.61918686  0.47416956  0.33962936    -0.14500
C1654       C  0.59100075  0.47230020  0.33805107    -0.29700
H1655       H  0.63202492  0.45607482  0.33352217     0.14500
H1656       H  0.57792886  0.49074144  0.34227968     0.15100
C1657       C  0.73331585  0.51152900  0.37418745    -0.14500
C1658       C  0.74634937  0.49239905  0.35764963    -0.29700
H1659       H  0.73618023  0.51062838  0.39699086     0.14500
H1660       H  0.74157613  0.49184631  0.33515201     0.15100
C1661       C  0.55998002  0.77098222  0.37996590    -0.14500
C1662       C  0.56472198  0.77745484  0.35264601    -0.29700
H1663       H  0.54819062  0.78569967  0.39313090     0.14500
H1664       H  0.57506630  0.76247944  0.33861455     0.15100
C1665       C  0.62478480  0.62547667  0.40604259    -0.14500
C1666       C  0.64427284  0.62448811  0.38555736    -0.29700
H1667       H  0.61759202  0.60589491  0.41576401     0.14500
H1668       H  0.65155188  0.64396779  0.37571903     0.15100
C1669       C  0.21424435  0.87244426  0.90351223    -0.14500
C1670       C  0.21203650  0.84418920  0.90669222    -0.29700
H1671       H  0.19659325  0.88596239  0.90918427     0.14500
H1672       H  0.22991627  0.83044631  0.90255755     0.15100
C1673       C  0.32086505  0.88316191  0.96681593    -0.14500
C1674       C  0.31702890  0.85522804  0.97130673    -0.29700
H1675       H  0.32962284  0.89670974  0.98323657     0.14500
H1676       H  0.30665380  0.84246365  0.95518786     0.15100
C1677       C  0.36253239  0.88046899  0.82580112    -0.14500
C1678       C  0.36059560  0.90149080  0.84493135    -0.29700
H1679       H  0.34347742  0.87029482  0.81798806     0.14500
H1680       H  0.37965516  0.91148279  0.85295996     0.15100
C1681       C  0.40439613  0.76199299  0.85243899    -0.14500
C1682       C  0.40653286  0.75976537  0.88073605    -0.29700
H1683       H  0.39684585  0.74429364  0.83975511     0.14500
H1684       H  0.41566913  0.77712794  0.89284896     0.15100
C1685       C  0.65156312  0.85790580  0.46991096    -0.14500
C1686       C  0.64734528  0.88567109  0.46498026    -0.29700
H1687       H  0.66297029  0.84520761  0.45447702     0.14500
H1688       H  0.63720681  0.89905798  0.48069985     0.15100
C1689       C  0.61711297  0.74082125  0.50395789    -0.14500
C1690       C  0.59095192  0.73394587  0.49549371    -0.29700
H1691       H  0.63511703  0.73010177  0.49465043     0.14500
H1692       H  0.57290601  0.74394649  0.50549006     0.15100
C1693       C  0.70673995  0.84640725  0.58567416    -0.14500
C1694       C  0.71106742  0.87460657  0.58580091    -0.29700
H1695       H  0.72273573  0.83205741  0.59365265     0.14500
H1696       H  0.69525588  0.88846930  0.57663238     0.15100
C1697       C  0.49032203  0.87402835  0.73397548    -0.14500
C1698       C  0.48028430  0.84851904  0.74186357    -0.29700
H1699       H  0.48057408  0.89321919  0.74209069     0.14500
H1700       H  0.48951824  0.82940512  0.73297295     0.15100
C1701       C  0.58684339  0.82963488  0.63557373    -0.14500
C1702       C  0.58093007  0.83657444  0.60868431    -0.29700
H1703       H  0.60201296  0.81296771  0.63999087     0.14500
H1704       H  0.56605952  0.85352160  0.60428900     0.15100
C1705       C  0.61847825  0.95102828  0.67054004    -0.14500
C1706       C  0.61070053  0.97257822  0.65378256    -0.29700
H1707       H  0.63983040  0.95057227  0.67882206     0.14500
H1708       H  0.58981092  0.97308042  0.64445575     0.15100
C1709       C  0.10840658  0.95126802  0.83923274    -0.14500
C1710       C  0.09933527  0.97794124  0.84258370    -0.29700
H1711       H  0.13005739  0.94598581  0.84455086     0.14500
H1712       H  0.07799497  0.98374461  0.83665977     0.15100
C1713       C  0.23266577  0.00263886  0.88072613    -0.14500
C1714       C  0.24845329  0.98685544  0.86310996    -0.29700
H1715       H  0.23477953  0.99976287  0.90344126     0.14500
H1716       H  0.24491721  0.98828894  0.84042890     0.15100
C1717       C  0.08198332  0.25975405  0.85418390    -0.14500
C1718       C  0.07942951  0.28679047  0.86264693    -0.29700
H1719       H  0.07557797  0.25352566  0.83295621     0.14500
H1720       H  0.08524697  0.29253514  0.88419511     0.15100
C1721       C  0.12421316  0.24373893  0.00310428    -0.14500
C1722       C  0.09899890  0.23542669  0.99316387    -0.29700
H1723       H  0.14328248  0.23462837  0.99423646     0.14500
H1724       H  0.07987103  0.24378668  0.00261121     0.15100
C1725       C  0.13626203  0.10585509  0.90502460    -0.14500
C1726       C  0.14342144  0.13258187  0.89861778    -0.29700
H1727       H  0.11906818  0.10183849  0.91964626     0.14500
H1728       H  0.15984867  0.13659272  0.88312875     0.15100
C1729       C  0.00285412  0.14953832  0.87667386    -0.14500
C1730       C  0.00819696  0.17329693  0.89152315    -0.29700
H1731       H  0.01739309  0.13176631  0.87721663     0.14500
H1732       H  0.99305704  0.19058313  0.89111729     0.15100
C1733       C  0.89919174  0.22335602  0.83806204    -0.14500
C1734       C  0.88257913  0.22356976  0.86109692    -0.29700
H1735       H  0.90611934  0.24314598  0.82865584     0.14500
H1736       H  0.87568204  0.20360787  0.87019727     0.15100
C1737       C  0.72161954  0.12570778  0.88828381    -0.14500
C1738       C  0.70322929  0.11964878  0.90896358    -0.29700
H1739       H  0.71988450  0.14530155  0.87642141     0.14500
H1740       H  0.70468870  0.09930112  0.91959528     0.15100
C1741       C  0.86332655  0.08268345  0.83297882    -0.14500
C1742       C  0.86738324  0.10393974  0.81465609    -0.29700
H1743       H  0.88141733  0.07265795  0.84287567     0.14500
H1744       H  0.84949901  0.11391745  0.80436808     0.15100
C1745       C  0.82491540  0.10093912  0.95054489    -0.14500
C1746       C  0.82420231  0.12899569  0.95561815    -0.29700
H1747       H  0.83088890  0.08628449  0.96717348     0.14500
H1748       H  0.81612019  0.14318466  0.93947781     0.15100
C1749       C  0.07386372  0.21250842  0.37185812    -0.14500
C1750       C  0.07264936  0.21028989  0.34345631    -0.29700
H1751       H  0.06851257  0.19423169  0.38472203     0.14500
H1752       H  0.07628540  0.22871687  0.33023725     0.15100
C1753       C  0.99748383  0.31690998  0.35761448    -0.14500
C1754       C  0.00381978  0.32204144  0.38488650    -0.29700
H1755       H  0.01064580  0.30257271  0.34532698     0.14500
H1756       H  0.99017530  0.33512346  0.39797246     0.15100
C1757       C  0.09856980  0.50612537  0.35057718    -0.14500
C1758       C  0.07413379  0.50819844  0.33632069    -0.29700
H1759       H  0.10854067  0.52521495  0.35878610     0.14500
H1760       H  0.06375066  0.48927001  0.32829732     0.15100
C1761       C  0.14309150  0.36321712  0.38595983    -0.14500
C1762       C  0.12332782  0.36061533  0.40597932    -0.29700
H1763       H  0.15243286  0.34440087  0.37645775     0.14500
H1764       H  0.11415799  0.37952822  0.41547047     0.15100
C1765       C  0.12580422  0.41776482  0.26081910    -0.14500
C1766       C  0.10925497  0.39524964  0.25522770    -0.29700
H1767       H  0.12791227  0.43455875  0.24527223     0.14500
H1768       H  0.10732978  0.37813918  0.27043814     0.15100
C1769       C  0.19855575  0.60467371  0.40471056    -0.14500
C1770       C  0.19542856  0.63303510  0.40518733    -0.29700
H1771       H  0.18268360  0.59129526  0.41447293     0.14500
H1772       H  0.21193087  0.64679417  0.39718185     0.15100
C1773       C  0.23845097  0.48658204  0.37544495    -0.14500
C1774       C  0.22850478  0.47817289  0.35010656    -0.29700
H1775       H  0.23135383  0.47607402  0.39457396     0.14500
H1776       H  0.23614947  0.48828091  0.33097418     0.15100
C1777       C  0.31156276  0.61037907  0.45170285    -0.14500
C1778       C  0.32847164  0.60045468  0.47207560    -0.29700
H1779       H  0.30570737  0.63268910  0.45183059     0.14500
H1780       H  0.33535267  0.57847212  0.47188937     0.15100
C1781       C  0.50205373  0.65264721  0.35715086    -0.14500
C1782       C  0.50515390  0.65311614  0.38538989    -0.29700
H1783       H  0.51769875  0.66280591  0.34380032     0.14500
H1784       H  0.48905751  0.64416762  0.39904137     0.15100
C1785       C  0.36452471  0.57583864  0.33937653    -0.14500
C1786       C  0.33786314  0.58129664  0.33164825    -0.29700
H1787       H  0.36868439  0.56160941  0.35694202     0.14500
H1788       H  0.33360847  0.59611638  0.31460540     0.15100
C1789       C  0.39113357  0.70251308  0.34646289    -0.14500
C1790       C  0.39585770  0.70888462  0.37383431    -0.29700
H1791       H  0.38051123  0.71739837  0.33261128     0.14500
H1792       H  0.40801350  0.69435255  0.38680709     0.15100
C1793       C  0.62972464  0.60935134  0.97585819    -0.14500
C1794       C  0.64298089  0.58417391  0.97471763    -0.29700
H1795       H  0.62373965  0.61978171  0.95627728     0.14500
H1796       H  0.64890771  0.57330358  0.99405143     0.15100
C1797       C  0.71991028  0.62122820  0.09273605    -0.14500
C1798       C  0.71471452  0.63419213  0.06792156    -0.29700
H1799       H  0.70538118  0.62346176  0.11034009     0.14500
H1800       H  0.72996655  0.63260268  0.05085447     0.15100
C1801       C  0.60034661  0.57219004  0.26317286    -0.14500
C1802       C  0.62823532  0.57590209  0.26697622    -0.29700
H1803       H  0.58792269  0.56295773  0.28009677     0.14500
H1804       H  0.64133638  0.58404525  0.25003797     0.15100
C1805       C  0.48362283  0.61622436  0.23004293    -0.14500
C1806       C  0.46783961  0.59874688  0.24582405    -0.29700
H1807       H  0.48218807  0.63901264  0.23333163     0.14500
H1808       H  0.47113037  0.57596384  0.24432923     0.15100
C1809       C  0.56792530  0.63137117  0.11823667    -0.14500
C1810       C  0.58853046  0.65073130  0.11688688    -0.29700
H1811       H  0.55883550  0.62282505  0.09885695     0.14500
H1812       H  0.59748868  0.65940812  0.13627390     0.15100
C1813       C  0.57690885  0.50879316  0.15330296    -0.14500
C1814       C  0.60061750  0.50774128  0.13780313    -0.29700
H1815       H  0.56712428  0.48948270  0.16097964     0.14500
H1816       H  0.60975094  0.52733063  0.12996024     0.15100
C1817       C  0.61950256  0.00854071  0.83652483    -0.14500
C1818       C  0.59131837  0.01104295  0.83754697    -0.29700
H1819       H  0.63188772  0.02504843  0.82644700     0.14500
H1820       H  0.57843720  0.99407757  0.84610099     0.15100
C1821       C  0.73504792  0.98153103  0.87513597    -0.14500
C1822       C  0.74717042  0.99764558  0.85512580    -0.29700
H1823       H  0.73912644  0.98603394  0.89734928     0.14500
H1824       H  0.74147199  0.99450011  0.83304140     0.15100
C1825       C  0.63375858  0.89556918  0.78297489    -0.14500
C1826       C  0.60573608  0.89540993  0.77906645    -0.29700
H1827       H  0.64785349  0.88854073  0.76626841     0.14500
H1828       H  0.59198567  0.90414264  0.79527577     0.15100
C1829       C  0.57052720  0.71644171  0.88431840    -0.14500
C1830       C  0.57405599  0.71267526  0.85628338    -0.29700
H1831       H  0.56056187  0.69979035  0.89660592     0.14500
H1832       H  0.58252229  0.72962469  0.84332355     0.15100
C1833       C  0.59784644  0.75117444  0.00304395    -0.14500
C1834       C  0.62376902  0.74136280  0.00907740    -0.29700
H1835       H  0.57968931  0.74288853  0.01426462     0.14500
H1836       H  0.64195460  0.75015191  0.99828453     0.15100
C1837       C  0.62915098  0.86338729  0.92028474    -0.14500
C1838       C  0.65065429  0.86499909  0.90201612    -0.29700
H1839       H  0.61972884  0.88275696  0.92851069     0.14500
H1840       H  0.66009183  0.84562793  0.89380262     0.15100
C1841       C  0.50957225  0.82725258  0.89118325    -0.14500
C1842       C  0.50854730  0.82794423  0.86273531    -0.29700
H1843       H  0.49112852  0.83257097  0.90368372     0.14500
H1844       H  0.52673075  0.82095059  0.85064099     0.15100
C1845       C  0.14431297  0.06700163  0.77059263    -0.14500
C1846       C  0.13333121  0.09253006  0.76419833    -0.29700
H1847       H  0.14292267  0.04987404  0.75520481     0.14500
H1848       H  0.13512850  0.11014762  0.77894862     0.15100
C1849       C  0.99616666  0.13805684  0.74816047    -0.14500
C1850       C  0.00550018  0.11217344  0.74059100    -0.29700
H1851       H  0.00636258  0.15686274  0.73974415     0.14500
H1852       H  0.99513941  0.09333824  0.74873302     0.15100
C1853       C  0.10561835  0.02793397  0.65281868    -0.14500
C1854       C  0.13334145  0.02396777  0.64882554    -0.29700
H1855       H  0.09099468  0.01045435  0.64971804     0.14500
H1856       H  0.14796475  0.04091071  0.65415859     0.15100
C1857       C  0.15245959  0.11152872  0.47751903    -0.14500
C1858       C  0.16524612  0.11914276  0.45339456    -0.29700
H1859       H  0.14505459  0.08996277  0.48049689     0.14500
H1860       H  0.17116334  0.14120832  0.45047251     0.15100
C1861       C  0.12456857  0.24171550  0.49803337    -0.14500
C1862       C  0.09779169  0.24771001  0.49111465    -0.29700
H1863       H  0.14172879  0.25282355  0.48765792     0.14500
H1864       H  0.08059554  0.23714598  0.50198319     0.15100
C1865       C  0.08492592  0.14815883  0.62322100    -0.14500
C1866       C  0.10591093  0.16664421  0.61889266    -0.29700
H1867       H  0.07307946  0.13994158  0.60525944     0.14500
H1868       H  0.11767730  0.17502477  0.63682639     0.15100
C1869       C  0.22151387  0.14373752  0.57854716    -0.14500
C1870       C  0.22168748  0.11992712  0.59407739    -0.29700
H1871       H  0.24111006  0.15327787  0.57148273     0.14500
H1872       H  0.20190697  0.11070029  0.60109248     0.15100
C1873       C  0.84979848  0.01504323  0.15211071    -0.14500
C1874       C  0.87796571  0.01838646  0.15134685    -0.29700
H1875       H  0.83672557  0.03241672  0.15959088     0.14500
H1876       H  0.89159964  0.00083633  0.14555174     0.15100
C1877       C  0.86885806  0.90617413  0.22044186    -0.14500
C1878       C  0.84074839  0.90518995  0.21705271    -0.29700
H1879       H  0.88189401  0.91475758  0.20362728     0.14500
H1880       H  0.82729764  0.89810031  0.23421609     0.15100
C1881       C  0.89082750  0.72533181  0.12031784    -0.14500
C1882       C  0.91510623  0.72086226  0.13438124    -0.29700
H1883       H  0.87354795  0.71034493  0.12195118     0.14500
H1884       H  0.93168483  0.73673083  0.13367622     0.15100
C1885       C  0.81646380  0.86796129  0.09547830    -0.14500
C1886       C  0.83641275  0.86610433  0.07547207    -0.29700
H1887       H  0.80753489  0.84868481  0.10430937     0.14500
H1888       H  0.84539853  0.88531891  0.06658532     0.15100
C1889       C  0.95434882  0.83248353  0.10047736    -0.14500
C1890       C  0.95731215  0.83138258  0.12873911    -0.29700
H1891       H  0.97178383  0.83912531  0.08718291     0.14500
H1892       H  0.94024972  0.82301169  0.14157066     0.15100
C1893       C  0.36765758  0.08223878  0.22109996    -0.14500
C1894       C  0.33938707  0.08211083  0.21928567    -0.29700
H1895       H  0.38008513  0.07392172  0.20365048     0.14500
H1896       H  0.32653215  0.08866258  0.23713623     0.15100
C1897       C  0.35596043  0.02237673  0.33379310    -0.14500
C1898       C  0.38400623  0.02585923  0.33180418    -0.29700
H1899       H  0.34192481  0.03849150  0.32541392     0.14500
H1900       H  0.39824548  0.00910806  0.33837158     0.15100
C1901       C  0.31489624  0.09019026  0.51437575    -0.14500
C1902       C  0.33857896  0.10500066  0.50928326    -0.29700
H1903       H  0.29802156  0.09039847  0.49883176     0.14500
H1904       H  0.35596120  0.10473001  0.52420949     0.15100
C1905       C  0.38527386  0.16073859  0.37127053    -0.14500
C1906       C  0.40563903  0.14151690  0.36739024    -0.29700
H1907       H  0.37557018  0.17089643  0.35309201     0.14500
H1908       H  0.41549456  0.13152221  0.38557783     0.15100
C1909       C  0.26697679  0.10777217  0.39334040    -0.14500
C1910       C  0.26886535  0.13551777  0.39960160    -0.29700
H1911       H  0.28472953  0.09390962  0.39763648     0.14500
H1912       H  0.25058797  0.14919400  0.39745340     0.15100
C1913       C  0.40287317  0.21101200  0.63805666    -0.14500
C1914       C  0.40867055  0.21718553  0.61093576    -0.29700
H1915       H  0.39096248  0.22565485  0.65119112     0.14500
H1916       H  0.42186294  0.20287573  0.59866256     0.15100
C1917       C  0.37162854  0.24919856  0.49599360    -0.14500
C1918       C  0.34677802  0.23595429  0.49263199    -0.29700
H1919       H  0.38906303  0.24432262  0.48190467     0.14500
H1920       H  0.32922019  0.24114329  0.50645071     0.15100
C1921       C  0.46366638  0.33177501  0.63146359    -0.14500
C1922       C  0.46053288  0.33200533  0.60320602    -0.29700
H1923       H  0.44739477  0.32245861  0.64466737     0.14500
H1924       H  0.47726160  0.33985952  0.58965462     0.15100
C1925       C  0.36931943  0.50577952  0.64995806    -0.14500
C1926       C  0.37874929  0.51163723  0.67617342    -0.29700
H1927       H  0.37554067  0.51855589  0.63195686     0.14500
H1928       H  0.37291529  0.49775425  0.69352582     0.15100
C1929       C  0.32294512  0.36342144  0.60213788    -0.14500
C1930       C  0.34087466  0.36106599  0.58039235    -0.29700
H1931       H  0.31582287  0.34459201  0.61326154     0.14500
H1932       H  0.34780005  0.38000998  0.56931939     0.15100
C1933       C  0.34621919  0.40786820  0.71815074    -0.14500
C1934       C  0.37416746  0.41054789  0.72197788    -0.29700
H1935       H  0.33276347  0.40092856  0.73535967     0.14500
H1936       H  0.38703733  0.41943047  0.70519064     0.15100
C1937       C  0.26501030  0.60226263  0.58026356    -0.14500
C1938       C  0.27189893  0.62990221  0.58027519    -0.29700
H1939       H  0.27961297  0.58685904  0.57142563     0.14500
H1940       H  0.25702441  0.64583380  0.58750659     0.15100
C1941       C  0.24149599  0.48109607  0.61719105    -0.14500
C1942       C  0.22723418  0.49911105  0.63392239    -0.29700
H1943       H  0.23822824  0.48185824  0.59442575     0.14500
H1944       H  0.23189996  0.49987721  0.65644113     0.15100
C1945       C  0.14977526  0.59775627  0.52559971    -0.14500
C1946       C  0.14864090  0.62599678  0.52158305    -0.29700
H1947       H  0.14206830  0.58324770  0.50945563     0.14500
H1948       H  0.15773393  0.64010528  0.53736560     0.15100
C1949       C  0.96213869  0.65469551  0.62915319    -0.14500
C1950       C  0.95979660  0.65519650  0.60072204    -0.29700
H1951       H  0.94455162  0.66176395  0.64205527     0.14500
H1952       H  0.97757428  0.64958213  0.58741486     0.15100
C1953       C  0.11535016  0.58322810  0.64288601    -0.14500
C1954       C  0.11227647  0.60487850  0.66103438    -0.29700
H1955       H  0.09684455  0.57201970  0.63512777     0.14500
H1956       H  0.13070642  0.61597962  0.66910690     0.15100
C1957       C  0.06805866  0.72303391  0.61486219    -0.14500
C1958       C  0.06768136  0.71987969  0.64316514    -0.29700
H1959       H  0.05986857  0.70617354  0.60144091     0.14500
H1960       H  0.07427287  0.73702064  0.65707691     0.15100
C1961       C  0.83060765  0.62503911  0.02632572    -0.14500
C1962       C  0.82896833  0.59677096  0.02943844    -0.29700
H1963       H  0.82392907  0.63886578  0.04349924     0.14500
H1964       H  0.83341251  0.58275196  0.01170390     0.15100
C1965       C  0.84710021  0.73972656  0.98318066    -0.14500
C1966       C  0.87276946  0.74761809  0.99244284    -0.29700
H1967       H  0.82850099  0.75057839  0.99104526     0.14500
H1968       H  0.89142444  0.73720813  0.98413640     0.15100
C1969       C  0.76705163  0.61013975  0.92379079    -0.14500
C1970       C  0.74501073  0.61649724  0.90726201    -0.29700
H1971       H  0.76873940  0.58891388  0.93253731     0.14500
H1972       H  0.74341568  0.63714927  0.89728829     0.15100
C1973       C  0.87100313  0.57987527  0.72001710    -0.14500
C1974       C  0.84289901  0.57772613  0.71752038    -0.29700
H1975       H  0.88438966  0.57396277  0.70230425     0.14500
H1976       H  0.82930587  0.58191168  0.73554156     0.15100
C1977       C  0.98245950  0.62299900  0.76063786    -0.14500
C1978       C  0.99856514  0.60762234  0.74299626    -0.29700
H1979       H  0.98338741  0.64602493  0.75969955     0.14500
H1980       H  0.99616452  0.58468317  0.74249588     0.15100
C1981       C  0.89653269  0.62996680  0.87108236    -0.14500
C1982       C  0.87621107  0.64954755  0.87348649    -0.29700
H1983       H  0.90607278  0.62102528  0.88997004     0.14500
H1984       H  0.86643553  0.65816431  0.85456660     0.15100
C1985       C  0.87807349  0.51155303  0.82411518    -0.14500
C1986       C  0.85005586  0.50795890  0.82115864    -0.29700
H1987       H  0.89122949  0.49448158  0.83194229     0.14500
H1988       H  0.83761404  0.52482483  0.81180906     0.15100
C1989       C  0.74518731  0.11838302  0.07991905    -0.14500
C1990       C  0.76652610  0.11182251  0.06248929    -0.29700
H1991       H  0.74426044  0.13897414  0.09023627     0.14500
H1992       H  0.76780118  0.09055151  0.05363702     0.15100
C1993       C  0.73156987  0.98125249  0.12762473    -0.14500
C1994       C  0.72417088  0.98982070  0.10154257    -0.29700
H1995       H  0.72077407  0.98991323  0.14598278     0.14500
H1996       H  0.73442324  0.98059284  0.08314211     0.15100
C1997       C  0.64168586  0.09748540  0.01565135    -0.14500
C1998       C  0.64007746  0.12590705  0.01430259    -0.29700
H1999       H  0.63733339  0.08453602  0.99708489     0.14500
H2000       H  0.64639393  0.13869960  0.03241653     0.15100
C2001       C  0.45338278  0.15827186  0.12270876    -0.14500
C2002       C  0.44770716  0.15840949  0.09481993    -0.29700
H2003       H  0.43873748  0.16820707  0.13735023     0.14500
H2004       H  0.46295716  0.15028912  0.07972396     0.15100
C2005       C  0.49549077  0.11135498  0.23088475    -0.14500
C2006       C  0.48087465  0.12898841  0.24767799    -0.29700
H2007       H  0.49257531  0.08857621  0.23302362     0.14500
H2008       H  0.48182755  0.15172263  0.24396906     0.15100
C2009       C  0.60217839  0.09153956  0.15000716    -0.14500
C2010       C  0.60496844  0.07047884  0.13109779    -0.29700
H2011       H  0.62083183  0.10101940  0.15950498     0.14500
H2012       H  0.58637076  0.06113770  0.12136912     0.15100
C2013       C  0.56251435  0.20320199  0.10804593    -0.14500
C2014       C  0.57794867  0.22560037  0.11622731    -0.29700
H2015       H  0.55562359  0.20170826  0.08614145     0.14500
H2016       H  0.58626820  0.22698582  0.13759983     0.15100
loop_ 
_geom_bond_atom_site_label_1 
_geom_bond_atom_site_label_2 
_geom_bond_distance 
_geom_bond_site_symmetry_2 
_ccdc_geom_bond_type 
In1           O3   2.215       .  S
In1           O4   2.233       .  S
In1          O12   2.215       .  S
In1           O6   2.251       .  S
In1           O8   2.266       .  S
In1           O9   2.258       .  S
In1          O10   2.198       .  S
In1          O13   2.205       .  S
C2            O8   1.274       .  A
C2           O10   1.261       .  A
C2         C2013   1.471       .  S
O3           C11   1.265       .  A
O4           C11   1.271       .  A
C5           O12   1.265       .  A
C5            O6   1.272       .  A
C5         C2005   1.476       .  S
C7            O9   1.271       .  A
C7           O13   1.263       .  A
C7         C2001   1.469       .  S
C11        C2009   1.471       .  S
In14         O16   2.235       .  S
In14         O17   2.233       .  S
In14         O25   2.251       .  S
In14         O19   2.251       .  S
In14         O21   2.268       .  S
In14         O22   2.270       .  S
In14         O23   2.208       .  S
In14         O26   2.220       .  S
C15          O21   1.266       .  A
C15          O23   1.259       .  A
C15        C1997   1.474       .  S
O16          C24   1.262       .  A
O17          C24   1.266       .  A
C18          O25   1.263       .  A
C18          O19   1.263       .  A
C18        C1994   1.480   1_545  S
C20          O22   1.264       .  A
C20          O26   1.260       .  A
C20        C1989   1.478       .  S
C24        C2010   1.472       .  S
In27         O29   2.231       .  S
In27         O30   2.234       .  S
In27         O38   2.233       .  S
In27         O32   2.264       .  S
In27         O34   2.284       .  S
In27         O35   2.259       .  S
In27         O36   2.209       .  S
In27         O39   2.213       .  S
C28          O34   1.270       .  A
C28          O36   1.259       .  A
C28        C1985   1.485       .  S
O29          C37   1.263       .  A
O30          C37   1.267       .  A
C31          O38   1.262       .  A
C31          O32   1.269       .  A
C31        C1977   1.480       .  S
C33          O35   1.266       .  A
C33          O39   1.260       .  A
C33        C1973   1.465       .  S
C37        C1981   1.473       .  S
In40         O42   2.226       .  S
In40         O43   2.239       .  S
In40         O51   2.235       .  S
In40         O45   2.248       .  S
In40         O47   2.278       .  S
In40         O48   2.260       .  S
In40         O49   2.203       .  S
In40         O52   2.210       .  S
C41          O47   1.269       .  A
C41          O49   1.257       .  A
C41        C1969   1.469       .  S
O42          C50   1.262       .  A
O43          C50   1.267       .  A
C44          O51   1.265       .  A
C44          O45   1.267       .  A
C44        C1965   1.479       .  S
C46          O48   1.268       .  A
C46          O52   1.260       .  A
C46        C1961   1.465   1_556  S
C50        C1982   1.472       .  S
In53         O55   2.233       .  S
In53         O56   2.236       .  S
In53         O64   2.232       .  S
In53         O58   2.261       .  S
In53         O60   2.277       .  S
In53         O61   2.271       .  S
In53         O62   2.196       .  S
In53         O65   2.219   1_455  S
C54          O60   1.270       .  A
C54          O62   1.260       .  A
C54        C1958   1.481       .  S
O55          C63   1.262       .  A
O56          C63   1.268       .  A
C57          O64   1.262       .  A
C57          O58   1.269       .  A
C57        C1978   1.480   1_455  S
C59          O61   1.266   1_655  A
C59          O65   1.261       .  A
C59        C1949   1.473       .  S
C63        C1954   1.473       .  S
In66         O68   2.217       .  S
In66         O69   2.241       .  S
In66         O77   2.235       .  S
In66         O71   2.251       .  S
In66         O73   2.271       .  S
In66         O74   2.265       .  S
In66         O75   2.212       .  S
In66         O78   2.201       .  S
C67          O73   1.270       .  A
C67          O75   1.262       .  A
C67        C1945   1.483       .  S
O68          C76   1.263       .  A
O69          C76   1.270       .  A
C70          O77   1.263       .  A
C70          O71   1.270       .  A
C70        C1942   1.480       .  S
C72          O74   1.269       .  A
C72          O78   1.260       .  A
C72        C1937   1.467       .  S
C76        C1953   1.471       .  S
In79         O81   2.242       .  S
In79         O82   2.226       .  S
In79         O90   2.234       .  S
In79         O84   2.275       .  S
In79         O86   2.267       .  S
In79         O87   2.270       .  S
In79         O88   2.210       .  S
In79         O91   2.215       .  S
C80          O86   1.269       .  A
C80          O88   1.261       .  A
C80        C1933   1.477       .  S
O81          C89   1.262       .  A
O82          C89   1.265       .  A
C83          O90   1.258       .  A
C83          O84   1.265       .  A
C83        C1941   1.478       .  S
C85          O87   1.264       .  A
C85          O91   1.260       .  A
C85        C1925   1.472       .  S
C89        C1929   1.471       .  S
In92         O94   2.232       .  S
In92         O95   2.244       .  S
In92        O103   2.223       .  S
In92         O97   2.240       .  S
In92         O99   2.269       .  S
In92        O100   2.263       .  S
In92        O101   2.207       .  S
In92        O104   2.207       .  S
C93          O99   1.267       .  A
C93         O101   1.259       .  A
C93        C1914   1.467       .  S
O94         C102   1.264       .  A
O95         C102   1.265       .  A
C96         O103   1.261       .  A
C96          O97   1.267       .  A
C96        C1930   1.469       .  S
C98         O100   1.266       .  A
C98         O104   1.260       .  A
C98        C1922   1.474       .  S
C102       C1917   1.474       .  S
In105       O107   2.230       .  S
In105       O108   2.240       .  S
In105       O116   2.247       .  S
In105       O110   2.255       .  S
In105       O112   2.259       .  S
In105       O113   2.282       .  S
In105       O114   2.215       .  S
In105       O117   2.227       .  S
C106        O112   1.266       .  A
C106        O114   1.262       .  A
C106       C1910   1.475       .  S
O107        C115   1.260       .  A
O108        C115   1.266       .  A
C109        O116   1.259       .  A
C109        O110   1.260       .  A
C109       C1918   1.474       .  S
C111        O113   1.263       .  A
C111        O117   1.257       .  A
C111       C1902   1.478       .  S
C115       C1905   1.470       .  S
In118       O120   2.224       .  S
In118       O121   2.231       .  S
In118       O129   2.232       .  S
In118       O123   2.251       .  S
In118       O125   2.265       .  S
In118       O126   2.264       .  S
In118       O127   2.205       .  S
In118       O130   2.207       .  S
C119        O125   1.269       .  A
C119        O127   1.261       .  A
C119       C1898   1.477       .  S
O120        C128   1.263       .  A
O121        C128   1.269       .  A
C122        O129   1.263       .  A
C122        O123   1.269       .  A
C122       C2006   1.477       .  S
C124        O126   1.267       .  A
C124        O130   1.260       .  A
C124       C1893   1.467       .  S
C128       C1906   1.470       .  S
In131       O133   2.246       .  S
In131       O134   2.244       .  S
In131       O142   2.250       .  S
In131       O136   2.261       .  S
In131       O138   2.263       .  S
In131       O139   2.272       .  S
In131       O140   2.211       .  S
In131       O143   2.235       .  S
C132        O138   1.268       .  A
C132        O140   1.262       .  A
C132       C1889   1.477       .  S
O133        C141   1.261       .  A
O134        C141   1.264       .  A
C135        O142   1.259       .  A
C135        O136   1.262       .  A
C135       C1966   1.479   1_554  S
C137        O139   1.264       .  A
C137        O143   1.258       .  A
C137       C1881   1.475       .  S
C141       C1886   1.476       .  S
In144       O146   2.236       .  S
In144       O147   2.250       .  S
In144       O155   2.251       .  S
In144       O149   2.253       .  S
In144       O151   2.274       .  S
In144       O152   2.279       .  S
In144       O153   2.224       .  S
In144       O156   2.215       .  S
C145        O151   1.265       .  A
C145        O153   1.259       .  A
C145       C1878   1.480       .  S
O146        C154   1.261       .  A
O147        C154   1.266       .  A
C148        O155   1.264       .  A
C148        O149   1.264       .  A
C148       C1993   1.480       .  S
C150        O152   1.265       .  A
C150        O156   1.258       .  A
C150       C1873   1.470   1_565  S
C154       C1885   1.475       .  S
In157       O159   2.234       .  S
In157       O160   2.238       .  S
In157       O168   2.246       .  S
In157       O162   2.246       .  S
In157       O164   2.262       .  S
In157       O165   2.278       .  S
In157       O166   2.213       .  S
In157       O169   2.231       .  S
C158        O164   1.264       .  A
C158        O166   1.259       .  A
C158       C1869   1.471       .  S
O159        C167   1.262       .  A
O160        C167   1.267       .  A
C161        O168   1.263       .  A
C161        O162   1.262       .  A
C161       C1861   1.475       .  S
C163        O165   1.262       .  A
C163        O169   1.259       .  A
C163       C1857   1.481       .  S
C167       C1866   1.474       .  S
In170       O172   2.238       .  S
In170       O173   2.253       .  S
In170       O181   2.256       .  S
In170       O175   2.258       .  S
In170       O177   2.259       .  S
In170       O178   2.281       .  S
In170       O179   2.224       .  S
In170       O182   2.233       .  S
C171        O177   1.266       .  A
C171        O179   1.263       .  A
C171       C1853   1.478       .  S
O172        C180   1.259       .  A
O173        C180   1.265       .  A
C174        O181   1.260       .  A
C174        O175   1.261       .  A
C174       C1850   1.479       .  S
C176        O178   1.263       .  A
C176        O182   1.257       .  A
C176       C1846   1.480       .  S
C180       C1865   1.474       .  S
In183       O185   2.233       .  S
In183       O186   2.248       .  S
In183       O194   2.237       .  S
In183       O188   2.251       .  S
In183       O190   2.275       .  S
In183       O191   2.279       .  S
In183       O192   2.214       .  S
In183       O195   2.220       .  S
C184        O190   1.266       .  A
C184        O192   1.260       .  A
C184       C1841   1.481       .  S
O185        C193   1.261       .  A
O186        C193   1.267       .  A
C187        O194   1.263       .  A
C187        O188   1.266       .  A
C187       C1833   1.478   1_556  S
C189        O191   1.266       .  A
C189        O195   1.259       .  A
C189       C1829   1.474       .  S
C193       C1837   1.475       .  S
In196       O198   2.232       .  S
In196       O199   2.244       .  S
In196       O207   2.239       .  S
In196       O201   2.247       .  S
In196       O203   2.264       .  S
In196       O204   2.272       .  S
In196       O205   2.202       .  S
In196       O208   2.214       .  S
C197        O203   1.266       .  A
C197        O205   1.259       .  A
C197       C1825   1.474       .  S
O198        C206   1.262       .  A
O199        C206   1.268       .  A
C200        O207   1.263       .  A
C200        O201   1.266       .  A
C200       C1821   1.476       .  S
C202        O204   1.266       .  A
C202        O208   1.258       .  A
C202       C1817   1.469   1_565  S
C206       C1838   1.475       .  S
In209       O211   2.234       .  S
In209       O212   2.234       .  S
In209       O220   2.239       .  S
In209       O214   2.252       .  S
In209       O216   2.271       .  S
In209       O217   2.285       .  S
In209       O218   2.213       .  S
In209       O221   2.222       .  S
C210        O216   1.265       .  A
C210        O218   1.259       .  A
C210       C1813   1.474       .  S
O211        C219   1.263       .  A
O212        C219   1.267       .  A
C213        O220   1.261       .  A
C213        O214   1.265       .  A
C213       C1805   1.476       .  S
C215        O217   1.263       .  A
C215        O221   1.257       .  A
C215       C1801   1.473       .  S
C219       C1809   1.472       .  S
In222       O224   2.233       .  S
In222       O225   2.242       .  S
In222       O233   2.247       .  S
In222       O227   2.260       .  S
In222       O229   2.256       .  S
In222       O230   2.271       .  S
In222       O231   2.252       .  S
In222       O234   2.248       .  S
C223        O229   1.262       .  A
C223        O231   1.258       .  A
C223       C1798   1.475       .  S
O224        C232   1.261       .  A
O225        C232   1.265       .  A
C226        O233   1.260       .  A
C226        O227   1.263       .  A
C226       C1834   1.478       .  S
C228        O230   1.258       .  A
C228        O234   1.255       .  A
C228       C1793   1.473   1_554  S
C232       C1810   1.471       .  S
In235       O237   2.234       .  S
In235       O238   2.228       .  S
In235       O246   2.229       .  S
In235       O240   2.253       .  S
In235       O242   2.277       .  S
In235       O243   2.257       .  S
In235       O244   2.198       .  S
In235       O247   2.217       .  S
C236        O242   1.268       .  A
C236        O244   1.259       .  A
C236       C1789   1.478       .  S
O237        C245   1.266       .  A
O238        C245   1.264       .  A
C239        O246   1.261       .  A
C239        O240   1.267       .  A
C239       C1806   1.474       .  S
C241        O243   1.265       .  A
C241        O247   1.258       .  A
C241       C1781   1.465       .  S
C245       C1785   1.471       .  S
In248       O250   2.225       .  S
In248       O251   2.239       .  S
In248       O259   2.237       .  S
In248       O253   2.253       .  S
In248       O255   2.270       .  S
In248       O256   2.264       .  S
In248       O257   2.205       .  S
In248       O260   2.216       .  S
C249        O255   1.269       .  A
C249        O257   1.257       .  A
C249       C1777   1.467       .  S
O250        C258   1.264       .  A
O251        C258   1.265       .  A
C252        O259   1.264       .  A
C252        O253   1.265       .  A
C252       C1773   1.478       .  S
C254        O256   1.266       .  A
C254        O260   1.259       .  A
C254       C1769   1.466       .  S
C258       C1786   1.472       .  S
In261       O263   2.245       .  S
In261       O264   2.239       .  S
In261       O272   2.248       .  S
In261       O266   2.252       .  S
In261       O268   2.247       .  S
In261       O269   2.271       .  S
In261       O270   2.247       .  S
In261       O273   2.254       .  S
C262        O268   1.260       .  A
C262        O270   1.262       .  A
C262       C1765   1.472       .  S
O263        C271   1.260       .  A
O264        C271   1.263       .  A
C265        O272   1.261       .  A
C265        O266   1.261       .  A
C265       C1774   1.476       .  S
C267        O269   1.257       .  A
C267        O273   1.255       .  A
C267       C1757   1.474       .  S
C271       C1761   1.472       .  S
In274       O276   2.228       .  S
In274       O277   2.247       .  S
In274       O285   2.237       .  S
In274       O279   2.247       .  S
In274       O281   2.277       .  S
In274       O282   2.275       .  S
In274       O283   2.214       .  S
In274       O286   2.218       .  S
C275        O281   1.264       .  A
C275        O283   1.258       .  A
C275       C1754   1.477       .  S
O276        C284   1.259       .  A
O277        C284   1.266       .  A
C278        O285   1.264       .  A
C278        O279   1.264       .  A
C278       C1862   1.475       .  S
C280        O282   1.266       .  A
C280        O286   1.259       .  A
C280       C1749   1.471       .  S
C284       C1762   1.470       .  S
In287       O289   2.229       .  S
In287       O290   2.254       .  S
In287       O298   2.252       .  S
In287       O292   2.255       .  S
In287       O294   2.266       .  S
In287       O295   2.273       .  S
In287       O296   2.217       .  S
In287       O299   2.220       .  S
C288        O294   1.265       .  A
C288        O296   1.260       .  A
C288       C1745   1.477       .  S
O289        C297   1.260       .  A
O290        C297   1.265       .  A
C291        O298   1.262       .  A
C291        O292   1.263       .  A
C291       C1822   1.478   1_545  S
C293        O295   1.265       .  A
C293        O299   1.261       .  A
C293       C1737   1.481       .  S
C297       C1741   1.473       .  S
In300       O302   2.249       .  S
In300       O303   2.233       .  S
In300       O311   2.256       .  S
In300       O305   2.259       .  S
In300       O307   2.260       .  S
In300       O308   2.276       .  S
In300       O309   2.224       .  S
In300       O312   2.233       .  S
C301        O307   1.266       .  A
C301        O309   1.262       .  A
C301       C1733   1.476       .  S
O302        C310   1.262       .  A
O303        C310   1.263       .  A
C304        O311   1.260       .  A
C304        O305   1.260       .  A
C304       C1849   1.479       .  S
C306        O308   1.260       .  A
C306        O312   1.257       .  A
C306       C1729   1.475   1_655  S
C310       C1742   1.475       .  S
In313       O315   2.243       .  S
In313       O316   2.262       .  S
In313       O324   2.255       .  S
In313       O318   2.256       .  S
In313       O320   2.235       .  S
In313       O321   2.237       .  S
In313       O322   2.262       .  S
In313       O325   2.237       .  S
C314        O320   1.258       .  A
C314        O322   1.261       .  A
C314       C1730   1.471       .  S
O315        C323   1.260       .  A
O316        C323   1.257       .  A
C317        O324   1.261       .  A
C317        O318   1.260       .  A
C317       C1722   1.478       .  S
C319        O321   1.261       .  A
C319        O325   1.263       .  A
C319       C1726   1.469       .  S
C323       C1717   1.476       .  S
In326       O328   2.231   1_545  S
In326       O329   2.262       .  S
In326       O337   2.247       .  S
In326       O331   2.274       .  S
In326       O333   2.249       .  S
In326       O334   2.230       .  S
In326       O335   2.267       .  S
In326       O338   2.232       .  S
C327        O333   1.259       .  A
C327        O335   1.259       .  A
C327       C1845   1.476       .  S
O328        C336   1.259   1_565  A
O329        C336   1.257       .  A
C330        O337   1.257       .  A
C330        O331   1.263       .  A
C330       C1713   1.481       .  S
C332        O334   1.262       .  A
C332        O338   1.265       .  A
C332       C1725   1.468       .  S
C336       C1710   1.472   1_545  S
In339       O341   2.215       .  S
In339       O342   2.258       .  S
In339       O350   2.247       .  S
In339       O344   2.259       .  S
In339       O346   2.287       .  S
In339       O347   2.237       .  S
In339       O348   2.215       .  S
In339       O351   2.233       .  S
C340        O346   1.268       .  A
C340        O348   1.256       .  A
C340       C1705   1.474       .  S
O341        C349   1.259       .  A
O342        C349   1.265       .  A
C343        O350   1.264       .  A
C343        O344   1.267       .  A
C343       C1697   1.484       .  S
C345        O347   1.263       .  A
C345        O351   1.264       .  A
C345       C1701   1.473       .  S
C349       C1826   1.463       .  S
In352       O354   2.221       .  S
In352       O355   2.273       .  S
In352       O363   2.247       .  S
In352       O357   2.253       .  S
In352       O359   2.276       .  S
In352       O360   2.238       .  S
In352       O361   2.216       .  S
In352       O364   2.238       .  S
C353        O359   1.265       .  A
C353        O361   1.259       .  A
C353       C1693   1.481       .  S
O354        C362   1.257       .  A
O355        C362   1.263       .  A
C356        O363   1.262       .  A
C356        O357   1.263       .  A
C356       C1689   1.478       .  S
C358        O360   1.263       .  A
C358        O364   1.264       .  A
C358       C1702   1.473       .  S
C362       C1685   1.469       .  S
In365       O367   2.218       .  S
In365       O368   2.281       .  S
In365       O376   2.259       .  S
In365       O370   2.251       .  S
In365       O372   2.275       .  S
In365       O373   2.253       .  S
In365       O374   2.212       .  S
In365       O377   2.240       .  S
C366        O372   1.266       .  A
C366        O374   1.259       .  A
C366       C1681   1.479       .  S
O367        C375   1.257       .  A
O368        C375   1.266       .  A
C369        O376   1.265       .  A
C369        O370   1.265       .  A
C369       C1698   1.484       .  S
C371        O373   1.266       .  A
C371        O377   1.261       .  A
C371       C1677   1.477       .  S
C375       C1842   1.470       .  S
In378       O380   2.215       .  S
In378       O381   2.269       .  S
In378       O389   2.236       .  S
In378       O383   2.262       .  S
In378       O385   2.283       .  S
In378       O386   2.245       .  S
In378       O387   2.206       .  S
In378       O390   2.233       .  S
C379        O385   1.268       .  A
C379        O387   1.258       .  A
C379       C1673   1.482       .  S
O380        C388   1.259       .  A
O381        C388   1.266       .  A
C382        O389   1.262       .  A
C382        O383   1.268       .  A
C382       C1714   1.481       .  S
C384        O386   1.267       .  A
C384        O390   1.263       .  A
C384       C1678   1.476       .  S
C388       C1669   1.467       .  S
In391       O393   2.210       .  S
In391       O394   2.278       .  S
In391       O402   2.245       .  S
In391       O396   2.247       .  S
In391       O398   2.264       .  S
In391       O399   2.247       .  S
In391       O400   2.214       .  S
In391       O403   2.226       .  S
C392        O398   1.265       .  A
C392        O400   1.260       .  A
C392       C1782   1.474       .  S
O393        C401   1.258       .  A
O394        C401   1.266       .  A
C395        O402   1.264       .  A
C395        O396   1.263       .  A
C395       C1690   1.477       .  S
C397        O399   1.267       .  A
C397        O403   1.261       .  A
C397       C1665   1.472       .  S
C401       C1661   1.470       .  S
In404       O406   2.213       .  S
In404       O407   2.262       .  S
In404       O415   2.241       .  S
In404       O409   2.260       .  S
In404       O411   2.284       .  S
In404       O412   2.230       .  S
In404       O413   2.209       .  S
In404       O416   2.241       .  S
C405        O411   1.268       .  A
C405        O413   1.259       .  A
C405       C1802   1.483       .  S
O406        C414   1.259       .  A
O407        C414   1.265       .  A
C408        O415   1.261       .  A
C408        O409   1.267       .  A
C408       C1657   1.480       .  S
C410        O412   1.265       .  A
C410        O416   1.263       .  A
C410       C1666   1.474       .  S
C414       C1653   1.465       .  S
In417       O419   2.237       .  S
In417       O420   2.275       .  S
In417       O428   2.266       .  S
In417       O422   2.245       .  S
In417       O424   2.261       .  S
In417       O425   2.238       .  S
In417       O426   2.218       .  S
In417       O429   2.248       .  S
C418        O424   1.265       .  A
C418        O426   1.260       .  A
C418       C1650   1.473       .  S
O419        C427   1.255       .  A
O420        C427   1.260       .  A
C421        O428   1.261       .  A
C421        O422   1.258       .  A
C421       C1641   1.476   1_455  S
C423        O425   1.263       .  A
C423        O429   1.262       .  A
C423       C1645   1.475       .  S
C427       C1766   1.474       .  S
In430       O432   2.217       .  S
In430       O433   2.273       .  S
In430       O441   2.250       .  S
In430       O435   2.246       .  S
In430       O437   2.271       .  S
In430       O438   2.252       .  S
In430       O439   2.228       .  S
In430       O442   2.233       .  S
C431        O437   1.264       .  A
C431        O439   1.259       .  A
C431       C1637   1.480       .  S
O432        C440   1.257   1_554  A
O433        C440   1.265   1_554  A
C434        O441   1.264       .  A
C434        O435   1.264       .  A
C434       C1721   1.478       .  S
C436        O438   1.265       .  A
C436        O442   1.260       .  A
C436       C1646   1.474       .  S
C440       C1633   1.468       .  S
In443       O445   2.222       .  S
In443       O446   2.265       .  S
In443       O454   2.233       .  S
In443       O448   2.259       .  S
In443       O450   2.270       .  S
In443       O451   2.235       .  S
In443       O452   2.206       .  S
In443       O455   2.224       .  S
C444        O450   1.268       .  A
C444        O452   1.257       .  A
C444       C1629   1.469       .  S
O445        C453   1.258       .  A
O446        C453   1.264       .  A
C447        O454   1.262       .  A
C447        O448   1.265       .  A
C447       C1642   1.479       .  S
C449        O451   1.264       .  A
C449        O455   1.265       .  A
C449       C1625   1.470       .  S
C453       C1753   1.468       .  S
In456       O458   2.230       .  S
In456       O459   2.280       .  S
In456       O467   2.231       .  S
In456       O461   2.273       .  S
In456       O463   2.276       .  S
In456       O464   2.227       .  S
In456       O465   2.234       .  S
In456       O468   2.236       .  S
C457        O463   1.264       .  A
C457        O465   1.258       .  A
C457       C1621   1.480       .  S
O458        C466   1.256       .  A
O459        C466   1.261       .  A
C460        O467   1.259       .  A
C460        O461   1.266       .  A
C460       C1658   1.478       .  S
C462        O464   1.264       .  A
C462        O468   1.266       .  A
C462       C1626   1.470       .  S
C466       C1617   1.472       .  S
In469       O471   2.255       .  S
In469       O472   2.245       .  S
In469       O480   2.255       .  S
In469       O474   2.260       .  S
In469       O476   2.236       .  S
In469       O477   2.227       .  S
In469       O478   2.266       .  S
In469       O481   2.249       .  S
C470        O476   1.259       .  A
C470        O478   1.261       .  A
C470       C1901   1.473       .  S
O471        C479   1.258       .  A
O472        C479   1.257       .  A
C473        O480   1.259       .  A
C473        O474   1.260       .  A
C473       C1609   1.478   1_545  S
C475        O477   1.260       .  A
C475        O481   1.265       .  A
C475       C1614   1.469       .  S
C479       C1870   1.467       .  S
In482       O484   2.230       .  S
In482       O485   2.262       .  S
In482       O493   2.242       .  S
In482       O487   2.247       .  S
In482       O489   2.278       .  S
In482       O490   2.247       .  S
In482       O491   2.209       .  S
In482       O494   2.226       .  S
C483        O489   1.265       .  A
C483        O491   1.258       .  A
C483       C1913   1.478       .  S
O484        C492   1.258       .  A
O485        C492   1.263       .  A
C486        O493   1.263       .  A
C486        O487   1.264       .  A
C486       C1605   1.476       .  S
C488        O490   1.262       .  A
C488        O494   1.263       .  A
C488       C1613   1.473       .  S
C492       C1601   1.468       .  S
In495       O497   2.223       .  S
In495       O498   2.269       .  S
In495       O506   2.241       .  S
In495       O500   2.250       .  S
In495       O502   2.277       .  S
In495       O503   2.243       .  S
In495       O504   2.213       .  S
In495       O507   2.235       .  S
C496        O502   1.265       .  A
C496        O504   1.258       .  A
C496       C1818   1.479       .  S
O497        C505   1.258       .  A
O498        C505   1.264       .  A
C499        O506   1.263       .  A
C499        O500   1.264       .  A
C499       C1606   1.477       .  S
C501        O503   1.265       .  A
C501        O507   1.262       .  A
C501       C1597   1.474       .  S
C505       C1594   1.468       .  S
In508       O510   2.214       .  S
In508       O511   2.257       .  S
In508       O519   2.244       .  S
In508       O513   2.261       .  S
In508       O515   2.290       .  S
In508       O516   2.239       .  S
In508       O517   2.211       .  S
In508       O520   2.235       .  S
C509        O515   1.269       .  A
C509        O517   1.255       .  A
C509       C1738   1.472       .  S
O510        C518   1.260       .  A
O511        C518   1.266       .  A
C512        O519   1.263       .  A
C512        O513   1.267       .  A
C512       C1589   1.484       .  S
C514        O516   1.265       .  A
C514        O520   1.262       .  A
C514       C1598   1.474       .  S
C518       C1998   1.463   1_556  S
In521       O523   2.207       .  S
In521       O524   2.272       .  S
In521       O532   2.229       .  S
In521       O526   2.252       .  S
In521       O528   2.268       .  S
In521       O529   2.235       .  S
In521       O530   2.200       .  S
In521       O533   2.229       .  S
C522        O528   1.269       .  A
C522        O530   1.261       .  A
C522       C1585   1.479       .  S
O523        C531   1.259       .  A
O524        C531   1.267       .  A
C525        O532   1.262       .  A
C525        O526   1.268       .  A
C525       C1577   1.475       .  S
C527        O529   1.268       .  A
C527        O533   1.263       .  A
C527       C1581   1.472       .  S
C531       C1957   1.468       .  S
In534       O536   2.213       .  S
In534       O537   2.265       .  S
In534       O545   2.236       .  S
In534       O539   2.246       .  S
In534       O541   2.276       .  S
In534       O542   2.243       .  S
In534       O543   2.207       .  S
In534       O546   2.221       .  S
C535        O541   1.269       .  A
C535        O543   1.257       .  A
C535       C1574   1.469       .  S
O536        C544   1.260       .  A
O537        C544   1.268       .  A
C538        O545   1.265       .  A
C538        O539   1.268       .  A
C538       C1610   1.479       .  S
C540        O542   1.268       .  A
C540        O546   1.261       .  A
C540       C1582   1.471       .  S
C544       C1854   1.468   1_565  S
In547       O549   2.235       .  S
In547       O550   2.265       .  S
In547       O558   2.250       .  S
In547       O552   2.262       .  S
In547       O554   2.262       .  S
In547       O555   2.223       .  S
In547       O556   2.228       .  S
In547       O559   2.253       .  S
C548        O554   1.266       .  A
C548        O556   1.262       .  A
C548       C1758   1.477       .  S
O549        C557   1.257       .  A
O550        C557   1.259       .  A
C551        O558   1.257       .  A
C551        O552   1.261       .  A
C551       C1565   1.476   1_455  S
C553        O555   1.261       .  A
C553        O559   1.262       .  A
C553       C1570   1.472       .  S
C557       C1562   1.470       .  S
In560       O562   2.216       .  S
In560       O563   2.271       .  S
In560       O571   2.229       .  S
In560       O565   2.251       .  S
In560       O567   2.269       .  S
In560       O568   2.241       .  S
In560       O569   2.202       .  S
In560       O572   2.217       .  S
C561        O567   1.269       .  A
C561        O569   1.261       .  A
C561       C1770   1.478       .  S
O562        C570   1.260       .  A
O563        C570   1.268       .  A
C564        O571   1.263       .  A
C564        O565   1.268       .  A
C564       C1578   1.476       .  S
C566        O568   1.269       .  A
C566        O572   1.263       .  A
C566       C1569   1.469       .  S
C570       C1946   1.473       .  S
In573       O575   2.226       .  S
In573       O576   2.268       .  S
In573       O584   2.265       .  S
In573       O578   2.253       .  S
In573       O580   2.279       .  S
In573       O581   2.246       .  S
In573       O582   2.215       .  S
In573       O585   2.236       .  S
C574        O580   1.265       .  A
C574        O582   1.257       .  A
C574       C1557   1.478       .  S
O575        C583   1.261       .  A
O576        C583   1.263       .  A
C577        O584   1.263       .  A
C577        O578   1.262       .  A
C577       C1590   1.483   1_554  S
C579        O581   1.264       .  A
C579        O585   1.261       .  A
C579       C1553   1.473       .  S
C583       C2014   1.478       .  S
In586       O588   2.243       .  S
In586       O589   2.264       .  S
In586       O597   2.242       .  S
In586       O591   2.262       .  S
In586       O593   2.241       .  S
In586       O594   2.240       .  S
In586       O595   2.251       .  S
In586       O598   2.249       .  S
C587        O593   1.260       .  A
C587        O595   1.261       .  A
C587       C1549   1.471       .  S
O588        C596   1.256       .  A
O589        C596   1.257       .  A
C590        O597   1.259       .  A
C590        O591   1.261       .  A
C590       C1546   1.477       .  S
C592        O594   1.263       .  A
C592        O598   1.261       .  A
C592       C1554   1.475       .  S
C596       C1814   1.469       .  S
In599       O601   2.247       .  S
In599       O602   2.279       .  S
In599       O610   2.235       .  S
In599       O604   2.264       .  S
In599       O606   2.257       .  S
In599       O607   2.248       .  S
In599       O608   2.245       .  S
In599       O611   2.231       .  S
C600        O606   1.263       .  A
C600        O608   1.258       .  A
C600       C1882   1.475       .  S
O601        C609   1.254       .  A
O602        C609   1.257       .  A
C603        O610   1.260       .  A
C603        O604   1.265       .  A
C603       C1566   1.477       .  S
C605        O607   1.266       .  A
C605        O611   1.260       .  A
C605       C1541   1.472       .  S
C609       C1537   1.473   1_655  S
In612       O614   2.234       .  S
In612       O615   2.274       .  S
In612       O623   2.251       .  S
In612       O617   2.250       .  S
In612       O619   2.259       .  S
In612       O620   2.241       .  S
In612       O621   2.213       .  S
In612       O624   2.239       .  S
C613        O619   1.267       .  A
C613        O621   1.262       .  A
C613       C1962   1.475       .  S
O614        C622   1.258       .  A
O615        C622   1.264       .  A
C616        O623   1.261       .  A
C616        O617   1.261       .  A
C616       C1545   1.476       .  S
C618        O620   1.265       .  A
C618        O624   1.260       .  A
C618       C1542   1.473       .  S
C622       C1797   1.477       .  S
In625       O627   2.224       .  S
In625       O628   2.242       .  S
In625       O636   2.226       .  S
In625       O630   2.248       .  S
In625       O632   2.264       .  S
In625       O633   2.272       .  S
In625       O634   2.206       .  S
In625       O637   2.210       .  S
C626        O632   1.269       .  A
C626        O634   1.261       .  A
C626       C1533   1.478       .  S
O627        C635   1.262       .  A
O628        C635   1.269       .  A
C629        O636   1.263       .  A
C629        O630   1.269       .  A
C629       C1525   1.475       .  S
C631        O633   1.268       .  A
C631        O637   1.260       .  A
C631       C1694   1.471       .  S
C635       C1529   1.473       .  S
In638       O640   2.233       .  S
In638       O641   2.242       .  S
In638       O649   2.241       .  S
In638       O643   2.244       .  S
In638       O645   2.264       .  S
In638       O646   2.275       .  S
In638       O647   2.212       .  S
In638       O650   2.209       .  S
C639        O645   1.265       .  A
C639        O647   1.260       .  A
C639       C1521   1.474       .  S
O640        C648   1.261       .  A
O641        C648   1.266       .  A
C642        O649   1.264       .  A
C642        O643   1.265       .  A
C642       C1517   1.477       .  S
C644        O646   1.266       .  A
C644        O650   1.258       .  A
C644       C1586   1.467   1_655  S
C648       C1530   1.473       .  S
In651       O653   2.219       .  S
In651       O654   2.243       .  S
In651       O662   2.233       .  S
In651       O656   2.254       .  S
In651       O658   2.261       .  S
In651       O659   2.275       .  S
In651       O660   2.211       .  S
In651       O663   2.211       .  S
C652        O658   1.267       .  A
C652        O660   1.261       .  A
C652       C1602   1.476       .  S
O653        C661   1.261       .  A
O654        C661   1.269       .  A
C655        O662   1.263       .  A
C655        O656   1.267       .  A
C655       C1509   1.478       .  S
C657        O659   1.267       .  A
C657        O663   1.260       .  A
C657       C1505   1.472       .  S
C661       C1514   1.470       .  S
In664       O666   2.235       .  S
In664       O667   2.230       .  S
In664       O675   2.230       .  S
In664       O669   2.258       .  S
In664       O671   2.271       .  S
In664       O672   2.265       .  S
In664       O673   2.202       .  S
In664       O676   2.223   1_545  S
C665        O671   1.269       .  A
C665        O673   1.260       .  A
C665       C1593   1.477       .  S
O666        C674   1.262       .  A
O667        C674   1.267       .  A
C668        O675   1.260       .  A
C668        O669   1.267       .  A
C668       C1526   1.475       .  S
C670        O672   1.265   1_565  A
C670        O676   1.262       .  A
C670       C1706   1.481       .  S
C674       C1513   1.472       .  S
In677       O679   2.239       .  S
In677       O680   2.238       .  S
In677       O688   2.248       .  S
In677       O682   2.254       .  S
In677       O684   2.249       .  S
In677       O685   2.257       .  S
In677       O686   2.243       .  S
In677       O689   2.247       .  S
C678        O684   1.260       .  A
C678        O686   1.259       .  A
C678       C1561   1.469       .  S
O679        C687   1.261       .  A
O680        C687   1.264       .  A
C681        O688   1.260       .  A
C681        O682   1.259       .  A
C681       C1498   1.474       .  S
C683        O685   1.258       .  A
C683        O689   1.257       .  A
C683       C1649   1.470       .  S
C687       C1501   1.471       .  S
In690       O692   2.233       .  S
In690       O693   2.235       .  S
In690       O701   2.234       .  S
In690       O695   2.257       .  S
In690       O697   2.278       .  S
In690       O698   2.276       .  S
In690       O699   2.213       .  S
In690       O702   2.219       .  S
C691        O697   1.267       .  A
C691        O699   1.258       .  A
C691       C1538   1.479       .  S
O692        C700   1.263       .  A
O693        C700   1.267       .  A
C694        O701   1.262       .  A
C694        O695   1.267       .  A
C694       C1494   1.477       .  S
C696        O698   1.264       .  A
C696        O702   1.258       .  A
C696       C1490   1.472       .  S
C700       C1502   1.472       .  S
In703       O705   2.226       .  S
In703       O706   2.241       .  S
In703       O714   2.235       .  S
In703       O708   2.251       .  S
In703       O710   2.274       .  S
In703       O711   2.275       .  S
In703       O712   2.214       .  S
In703       O715   2.208       .  S
C704        O710   1.267       .  A
C704        O712   1.260       .  A
C704       C1618   1.480       .  S
O705        C713   1.262       .  A
O706        C713   1.267       .  A
C707        O714   1.262       .  A
C707        O708   1.267       .  A
C707       C1510   1.476       .  S
C709        O711   1.266       .  A
C709        O715   1.258       .  A
C709       C1481   1.468       .  S
C713       C1485   1.470       .  S
In716       O718   2.247       .  S
In716       O719   2.226       .  S
In716       O727   2.247       .  S
In716       O721   2.261       .  S
In716       O723   2.266       .  S
In716       O724   2.266       .  S
In716       O725   2.212       .  S
In716       O728   2.232       .  S
C717        O723   1.266       .  A
C717        O725   1.261       .  A
C717       C1654   1.476       .  S
O718        C726   1.262       .  A
O719        C726   1.262       .  A
C720        O727   1.259       .  A
C720        O721   1.260       .  A
C720       C1478   1.477       .  S
C722        O724   1.261       .  A
C722        O728   1.258       .  A
C722       C1550   1.473       .  S
C726       C1486   1.471       .  S
In729       O731   2.233       .  S
In729       O732   2.238       .  S
In729       O740   2.244       .  S
In729       O734   2.250       .  S
In729       O736   2.282       .  S
In729       O737   2.266       .  S
In729       O738   2.213       .  S
In729       O741   2.224       .  S
C730        O736   1.265       .  A
C730        O738   1.258       .  A
C730       C1473   1.481       .  S
O731        C739   1.263       .  A
O732        C739   1.262       .  A
C733        O740   1.263       .  A
C733        O734   1.264       .  A
C733       C1477   1.477       .  S
C735        O737   1.263       .  A
C735        O741   1.258       .  A
C735       C1558   1.468       .  S
C739       C1469   1.471       .  S
In742       O744   2.234       .  S
In742       O745   2.239       .  S
In742       O753   2.236       .  S
In742       O747   2.246       .  S
In742       O749   2.271       .  S
In742       O750   2.272       .  S
In742       O751   2.207       .  S
In742       O754   2.230       .  S
C743        O749   1.265       .  A
C743        O751   1.259       .  A
C743       C1465   1.477       .  S
O744        C752   1.263       .  A
O745        C752   1.263       .  A
C746        O753   1.263       .  A
C746        O747   1.264       .  A
C746       C1497   1.474       .  S
C748        O750   1.264       .  A
C748        O754   1.258       .  A
C748       C1638   1.472       .  S
C752       C1470   1.471       .  S
In755       O757   2.227       .  S
In755       O758   2.233       .  S
In755       O766   2.245       .  S
In755       O760   2.252       .  S
In755       O762   2.263       .  S
In755       O763   2.266       .  S
In755       O764   2.206       .  S
In755       O767   2.221       .  S
C756        O762   1.268       .  A
C756        O764   1.257       .  A
C756       C1709   1.465       .  S
O757        C765   1.262       .  A
O758        C765   1.267       .  A
C759        O766   1.263       .  A
C759        O760   1.263       .  A
C759       C1518   1.477   1_455  S
C761        O763   1.264       .  A
C761        O767   1.261       .  A
C761       C1573   1.478       .  S
C765       C1462   1.470       .  S
In768       O770   2.225       .  S
In768       O771   2.235       .  S
In768       O779   2.229       .  S
In768       O773   2.255       .  S
In768       O775   2.271       .  S
In768       O776   2.280       .  S
In768       O777   2.205       .  S
In768       O780   2.219       .  S
C769        O775   1.268       .  A
C769        O777   1.260       .  A
C769       C1670   1.479       .  S
O770        C778   1.263       .  A
O771        C778   1.269       .  A
C772        O779   1.262       .  A
C772        O773   1.268       .  A
C772       C1493   1.475       .  S
C774        O776   1.266       .  A
C774        O780   1.259       .  A
C774       C1457   1.475   1_556  S
C778       C1461   1.471       .  S
In781       O783   2.211       .  S
In781       O784   2.256       .  S
In781       O792   2.233       .  S
In781       O786   2.262       .  S
In781       O788   2.278       .  S
In781       O789   2.230       .  S
In781       O790   2.212       .  S
In781       O793   2.227       .  S
C782        O788   1.270       .  A
C782        O790   1.260       .  A
C782       C1458   1.484       .  S
O783        C791   1.260       .  A
O784        C791   1.266       .  A
C785        O792   1.262       .  A
C785        O786   1.269       .  A
C785       C1450   1.480       .  S
C787        O789   1.267       .  A
C787        O793   1.263       .  A
C787       C1453   1.470       .  S
C791       C1446   1.464       .  S
In794       O796   2.216   1_455  S
In794       O797   2.263       .  S
In794       O805   2.231       .  S
In794       O799   2.262       .  S
In794       O801   2.277       .  S
In794       O802   2.237       .  S
In794       O803   2.212       .  S
In794       O806   2.229       .  S
C795        O801   1.269       .  A
C795        O803   1.260       .  A
C795       C1489   1.483       .  S
O796        C804   1.260       .  A
O797        C804   1.267   1_455  A
C798        O805   1.262       .  A
C798        O799   1.269       .  A
C798       C1441   1.479   1_455  S
C800        O802   1.267       .  A
C800        O806   1.262       .  A
C800       C1454   1.471       .  S
C804       C1890   1.469       .  S
In807       O809   2.214       .  S
In807       O810   2.251       .  S
In807       O818   2.226       .  S
In807       O812   2.257       .  S
In807       O814   2.275       .  S
In807       O815   2.223       .  S
In807       O816   2.204       .  S
In807       O819   2.224       .  S
C808        O814   1.271       .  A
C808        O816   1.261       .  A
C808       C1950   1.483       .  S
O809        C817   1.261       .  A
O810        C817   1.267       .  A
C811        O818   1.262       .  A
C811        O812   1.270       .  A
C811       C1434   1.477       .  S
C813        O815   1.268       .  A
C813        O819   1.264       .  A
C813       C1437   1.468       .  S
C817       C1522   1.466       .  S
In820       O822   2.232       .  S
In820       O823   2.259       .  S
In820       O831   2.241       .  S
In820       O825   2.249       .  S
In820       O827   2.270       .  S
In820       O828   2.231       .  S
In820       O829   2.212       .  S
In820       O832   2.238       .  S
C821        O827   1.265       .  A
C821        O829   1.259       .  A
C821       C1974   1.475       .  S
O822        C830   1.262       .  A
O823        C830   1.262       .  A
C824        O831   1.262       .  A
C824        O825   1.263       .  A
C824       C1429   1.476       .  S
C826        O828   1.263       .  A
C826        O832   1.260       .  A
C826       C1438   1.469       .  S
C830       C1426   1.476       .  S
In833       O835   2.215       .  S
In833       O836   2.261       .  S
In833       O844   2.225       .  S
In833       O838   2.256       .  S
In833       O840   2.272       .  S
In833       O841   2.237       .  S
In833       O842   2.200       .  S
In833       O845   2.223       .  S
C834        O840   1.269       .  A
C834        O842   1.260       .  A
C834       C1421   1.478       .  S
O835        C843   1.260       .  A
O836        C843   1.267       .  A
C837        O844   1.262       .  A
C837        O838   1.269       .  A
C837       C1433   1.476       .  S
C839        O841   1.269       .  A
C839        O845   1.263       .  A
C839       C1417   1.471       .  S
C843       C1534   1.469       .  S
In846       O848   2.217       .  S
In846       O849   2.264       .  S
In846       O857   2.230       .  S
In846       O851   2.259       .  S
In846       O853   2.278       .  S
In846       O854   2.232       .  S
In846       O855   2.200       .  S
In846       O858   2.233       .  S
C847        O853   1.271       .  A
C847        O855   1.260       .  A
C847       C1414   1.482       .  S
O848        C856   1.260       .  A
O849        C856   1.268       .  A
C850        O857   1.262       .  A
C850        O851   1.270       .  A
C850       C1442   1.479       .  S
C852        O854   1.268       .  A
C852        O858   1.264       .  A
C852       C1418   1.473       .  S
C856       C1877   1.471       .  S
In859       O861   2.235       .  S
In859       O862   2.274       .  S
In859       O870   2.251       .  S
In859       O864   2.260       .  S
In859       O866   2.273       .  S
In859       O867   2.238       .  S
In859       O868   2.213       .  S
In859       O871   2.244       .  S
C860        O866   1.267       .  A
C860        O868   1.261       .  A
C860       C1482   1.480       .  S
O861        C869   1.255       .  A
O862        C869   1.261       .  A
C863        O870   1.259       .  A
C863        O864   1.259       .  A
C863       C1430   1.476       .  S
C865        O867   1.261       .  A
C865        O871   1.263       .  A
C865       C1409   1.471       .  S
C869       C1405   1.473       .  S
In872       O874   2.221       .  S
In872       O875   2.255       .  S
In872       O883   2.231       .  S
In872       O877   2.266       .  S
In872       O879   2.287       .  S
In872       O880   2.229       .  S
In872       O881   2.207       .  S
In872       O884   2.235       .  S
C873        O879   1.268       .  A
C873        O881   1.258       .  A
C873       C1506   1.484       .  S
O874        C882   1.259       .  A
O875        C882   1.263       .  A
C876        O883   1.260       .  A
C876        O877   1.267       .  A
C876       C1401   1.477       .  S
C878        O880   1.263       .  A
C878        O884   1.266       .  A
C878       C1410   1.471       .  S
C882       C1921   1.465       .  S
In885       O887   2.208       .  S
In885       O888   2.272       .  S
In885       O896   2.236       .  S
In885       O890   2.253       .  S
In885       O892   2.266       .  S
In885       O893   2.240       .  S
In885       O894   2.212       .  S
In885       O897   2.222       .  S
C886        O892   1.268       .  A
C886        O894   1.261       .  A
C886       C2002   1.479       .  S
O887        C895   1.259       .  A
O888        C895   1.268       .  A
C889        O896   1.263       .  A
C889        O890   1.268       .  A
C889       C1393   1.479   1_554  S
C891        O893   1.269       .  A
C891        O897   1.262       .  A
C891       C1397   1.472       .  S
C895       C1474   1.470       .  S
In898       O900   2.210       .  S
In898       O901   2.275       .  S
In898       O909   2.228       .  S
In898       O903   2.255       .  S
In898       O905   2.269       .  S
In898       O906   2.235       .  S
In898       O907   2.196       .  S
In898       O910   2.225       .  S
C899        O905   1.271       .  A
C899        O907   1.262       .  A
C899       C1894   1.479       .  S
O900        C908   1.260   1_545  A
O901        C908   1.268   1_545  A
C902        O909   1.263       .  A
C902        O903   1.270       .  A
C902       C1449   1.479       .  S
C904        O906   1.270       .  A
C904        O910   1.263       .  A
C904       C1398   1.472       .  S
C908       C1390   1.472       .  S
In911       O913   2.200       .  S
In911       O914   2.258       .  S
In911       O922   2.224       .  S
In911       O916   2.258       .  S
In911       O918   2.277       .  S
In911       O919   2.231       .  S
In911       O920   2.202       .  S
In911       O923   2.216       .  S
C912        O918   1.272       .  A
C912        O920   1.260       .  A
C912       C1385   1.473       .  S
O913        C921   1.262       .  A
O914        C921   1.270       .  A
C915        O922   1.263       .  A
C915        O916   1.271       .  A
C915       C1394   1.478       .  S
C917        O919   1.270       .  A
C917        O923   1.264       .  A
C917       C1381   1.468       .  S
C921       C1466   1.465   1_556  S
In924       O926   2.216       .  S
In924       O927   2.258       .  S
In924       O935   2.228       .  S
In924       O929   2.255       .  S
In924       O931   2.274       .  S
In924       O932   2.224       .  S
In924       O933   2.202       .  S
In924       O936   2.225       .  S
C925        O931   1.270       .  A
C925        O933   1.260       .  A
C925       C1377   1.480       .  S
O926        C934   1.261       .  A
O927        C934   1.267       .  A
C928        O935   1.262       .  A
C928        O929   1.270       .  A
C928       C1402   1.478       .  S
C930        O932   1.268       .  A
C930        O936   1.263       .  A
C930       C1382   1.469       .  S
C934       C1934   1.469       .  S
In937       O939   2.214       .  S
In937       O940   2.263       .  S
In937       O948   2.236       .  S
In937       O942   2.258       .  S
In937       O944   2.285       .  S
In937       O945   2.230       .  S
In937       O946   2.208       .  S
In937       O949   2.226       .  S
C938        O944   1.268       .  A
C938        O946   1.258       .  A
C938       C1874   1.483       .  S
O939        C947   1.259       .  A
O940        C947   1.265       .  A
C941        O948   1.261       .  A
C941        O942   1.269       .  A
C941       C1369   1.480       .  S
C943        O945   1.267       .  A
C943        O949   1.263       .  A
C943       C1373   1.469       .  S
C947       C1366   1.465       .  S
In950       O952   2.208   1_554  S
In950       O953   2.262       .  S
In950       O961   2.235       .  S
In950       O955   2.244       .  S
In950       O957   2.269       .  S
In950       O958   2.233       .  S
In950       O959   2.209       .  S
In950       O962   2.219       .  S
C951        O957   1.270       .  A
C951        O959   1.259       .  A
C951       C1990   1.471       .  S
O952        C960   1.261       .  A
O953        C960   1.269   1_554  A
C954        O961   1.265       .  A
C954        O955   1.269       .  A
C954       C1361   1.479       .  S
C956        O958   1.269       .  A
C956        O962   1.262       .  A
C956       C1374   1.470       .  S
C960       C1746   1.467       .  S
In963       O965   2.203       .  S
In963       O966   2.256       .  S
In963       O974   2.226       .  S
In963       O968   2.251       .  S
In963       O970   2.274       .  S
In963       O971   2.227       .  S
In963       O972   2.200       .  S
In963       O975   2.221       .  S
C964        O970   1.272       .  A
C964        O972   1.260       .  A
C964       C1858   1.473       .  S
O965        C973   1.261       .  A
O966        C973   1.269       .  A
C967        O974   1.263       .  A
C967        O968   1.271       .  A
C967       C1353   1.478   1_545  S
C969        O971   1.269       .  A
C969        O975   1.265       .  A
C969       C1357   1.469       .  S
C973       C1909   1.463       .  S
In976       O978   2.221       .  S
In976       O979   2.263       .  S
In976       O987   2.233       .  S
In976       O981   2.274       .  S
In976       O983   2.276       .  S
In976       O984   2.227       .  S
In976       O985   2.210       .  S
In976       O988   2.235       .  S
C977        O983   1.270       .  A
C977        O985   1.261       .  A
C977       C1750   1.482       .  S
O978        C986   1.260   1_455  A
O979        C986   1.263   1_455  A
C980        O987   1.258       .  A
C980        O981   1.267       .  A
C980       C1370   1.479   1_455  S
C982        O984   1.265       .  A
C982        O988   1.263       .  A
C982       C1358   1.470       .  S
C986       C1349   1.472       .  S
In989       O991   2.220       .  S
In989       O992   2.283       .  S
In989      O1000   2.243       .  S
In989       O994   2.252       .  S
In989       O996   2.271       .  S
In989       O997   2.239       .  S
In989       O998   2.211       .  S
In989      O1001   2.232       .  S
C990        O996   1.266       .  A
C990        O998   1.259       .  A
C990       C1345   1.478       .  S
O991        C999   1.258       .  A
O992        C999   1.265       .  A
C993       O1000   1.264       .  A
C993        O994   1.265       .  A
C993       C1337   1.479       .  S
C995        O997   1.267       .  A
C995       O1001   1.262       .  A
C995       C1341   1.472       .  S
C999       C1986   1.473       .  S
In1002     O1004   2.264       .  S
In1002     O1005   2.251       .  S
In1002     O1013   2.246       .  S
In1002     O1007   2.261       .  S
In1002     O1009   2.252       .  S
In1002     O1010   2.242       .  S
In1002     O1011   2.251       .  S
In1002     O1014   2.236       .  S
C1003      O1009   1.261       .  A
C1003      O1011   1.258       .  A
C1003      C1333   1.473       .  S
O1004      C1012   1.257       .  A
O1005      C1012   1.256       .  A
C1006      O1013   1.260       .  A
C1006      O1007   1.263       .  A
C1006      C1362   1.479       .  S
C1008      O1010   1.265       .  A
C1008      O1014   1.261       .  A
C1008      C1342   1.472       .  S
C1012      C1734   1.472       .  S
In1015     O1017   2.231       .  S
In1015     O1018   2.275       .  S
In1015     O1026   2.259       .  S
In1015     O1020   2.253       .  S
In1015     O1022   2.273       .  S
In1015     O1023   2.228       .  S
In1015     O1024   2.228       .  S
In1015     O1027   2.242       .  S
C1016      O1022   1.263       .  A
C1016      O1024   1.258       .  A
C1016      C1794   1.477       .  S
O1017      C1025   1.258       .  A
O1018      C1025   1.259       .  A
C1019      O1026   1.261       .  A
C1019      O1020   1.260       .  A
C1019      C1338   1.478       .  S
C1021      O1023   1.264       .  A
C1021      O1027   1.263       .  A
C1021      C1329   1.472       .  S
C1025      C1970   1.478       .  S
In1028     O1030   2.211       .  S
In1028     O1031   2.265       .  S
In1028     O1039   2.246       .  S
In1028     O1033   2.250       .  S
In1028     O1035   2.279       .  S
In1028     O1036   2.242       .  S
In1028     O1037   2.223       .  S
In1028     O1040   2.233       .  S
C1029      O1035   1.266       .  A
C1029      O1037   1.259       .  A
C1029      C1830   1.483       .  S
O1030      C1038   1.258       .  A
O1031      C1038   1.266       .  A
C1032      O1039   1.264       .  A
C1032      O1033   1.265       .  A
C1032      C1325   1.480       .  S
C1034      O1036   1.265       .  A
C1034      O1040   1.261       .  A
C1034      C1330   1.471       .  S
C1038      C1321   1.465       .  S
In1041     O1043   2.210       .  S
In1041     O1044   2.269       .  S
In1041     O1052   2.237       .  S
In1041     O1046   2.251       .  S
In1041     O1048   2.264       .  S
In1041     O1049   2.238       .  S
In1041     O1050   2.206       .  S
In1041     O1053   2.230       .  S
C1042      O1048   1.266       .  A
C1042      O1050   1.260       .  A
C1042      C1318   1.475       .  S
O1043      C1051   1.259       .  A
O1044      C1051   1.266       .  A
C1045      O1052   1.261       .  A
C1045      O1046   1.265       .  A
C1045      C1309   1.475       .  S
C1047      O1049   1.265       .  A
C1047      O1053   1.264       .  A
C1047      C1313   1.472       .  S
C1051      C1790   1.467       .  S
In1054     O1056   2.215       .  S
In1054     O1057   2.253       .  S
In1054     O1065   2.221       .  S
In1054     O1059   2.259       .  S
In1054     O1061   2.273       .  S
In1054     O1062   2.231       .  S
In1054     O1063   2.193       .  S
In1054     O1066   2.224       .  S
C1055      O1061   1.272       .  A
C1055      O1063   1.258       .  A
C1055      C1306   1.468       .  S
O1056      C1064   1.262       .  A
O1057      C1064   1.268       .  A
C1058      O1065   1.263       .  A
C1058      O1059   1.271       .  A
C1058      C1354   1.478       .  S
C1060      O1062   1.267       .  A
C1060      O1066   1.266       .  A
C1060      C1314   1.472       .  S
C1064      C1897   1.467   1_565  S
In1067     O1069   2.243       .  S
In1067     O1070   2.256       .  S
In1067     O1078   2.258       .  S
In1067     O1072   2.263       .  S
In1067     O1074   2.237       .  S
In1067     O1075   2.234       .  S
In1067     O1076   2.264       .  S
In1067     O1079   2.238       .  S
C1068      O1074   1.258       .  A
C1068      O1076   1.260       .  A
C1068      C1926   1.469       .  S
O1069      C1077   1.261       .  A
O1070      C1077   1.256       .  A
C1071      O1078   1.259       .  A
C1071      O1072   1.260       .  A
C1071      C1326   1.480       .  S
C1073      O1075   1.261       .  A
C1073      O1079   1.264       .  A
C1073      C1301   1.471       .  S
C1077      C1297   1.474       .  S
In1080     O1082   2.225       .  S
In1080     O1083   2.268       .  S
In1080     O1091   2.245       .  S
In1080     O1085   2.255       .  S
In1080     O1087   2.274       .  S
In1080     O1088   2.239       .  S
In1080     O1089   2.210       .  S
In1080     O1092   2.237       .  S
C1081      O1087   1.264       .  A
C1081      O1089   1.259       .  A
C1081      C1938   1.478       .  S
O1082      C1090   1.260       .  A
O1083      C1090   1.261       .  A
C1084      O1091   1.260       .  A
C1084      O1085   1.263       .  A
C1084      C1310   1.476       .  S
C1086      O1088   1.262       .  A
C1086      O1092   1.263       .  A
C1086      C1302   1.472       .  S
C1090      C1778   1.476       .  S
In1093     O1095   2.227       .  S
In1093     O1096   2.230       .  S
In1093     O1104   2.246       .  S
In1093     O1098   2.251       .  S
In1093     O1100   2.269       .  S
In1093     O1101   2.271       .  S
In1093     O1102   2.204       .  S
In1093     O1105   2.213       .  S
C1094      O1100   1.270       .  A
C1094      O1102   1.257       .  A
C1094      C1298   1.468       .  S
O1095      C1103   1.264       .  A
O1096      C1103   1.268       .  A
C1097      O1104   1.265       .  A
C1097      O1098   1.266       .  A
C1097      C1289   1.482       .  S
C1099      O1101   1.266       .  A
C1099      O1105   1.258       .  A
C1099      C1378   1.467       .  S
C1103      C1293   1.473       .  S
In1106     O1108   2.233       .  S
In1106     O1109   2.242       .  S
In1106     O1117   2.237       .  S
In1106     O1111   2.254       .  S
In1106     O1113   2.270       .  S
In1106     O1114   2.274       .  S
In1106     O1115   2.207       .  S
In1106     O1118   2.219       .  S
C1107      O1113   1.267       .  A
C1107      O1115   1.260       .  A
C1107      C1322   1.477       .  S
O1108      C1116   1.262       .  A
O1109      C1116   1.266       .  A
C1110      O1117   1.263       .  A
C1110      O1111   1.265       .  A
C1110      C1285   1.477   1_556  S
C1112      O1114   1.265       .  A
C1112      O1118   1.258       .  A
C1112      C1682   1.470       .  S
C1116      C1294   1.473       .  S
In1119     O1121   2.239       .  S
In1119     O1122   2.243       .  S
In1119     O1130   2.256       .  S
In1119     O1124   2.268       .  S
In1119     O1126   2.271       .  S
In1119     O1127   2.272   1_455  S
In1119     O1128   2.216       .  S
In1119     O1131   2.226       .  S
C1120      O1126   1.269       .  A
C1120      O1128   1.259       .  A
C1120      C1718   1.472       .  S
O1121      C1129   1.263       .  A
O1122      C1129   1.265       .  A
C1123      O1130   1.260       .  A
C1123      O1124   1.263       .  A
C1123      C1277   1.484   1_455  S
C1125      O1127   1.263       .  A
C1125      O1131   1.257   1_655  A
C1125      C1334   1.474       .  S
C1129      C1281   1.476       .  S
In1132     O1134   2.243       .  S
In1132     O1135   2.250       .  S
In1132     O1143   2.260       .  S
In1132     O1137   2.250       .  S
In1132     O1139   2.269       .  S
In1132     O1140   2.279       .  S
In1132     O1141   2.221       .  S
In1132     O1144   2.223       .  S
C1133      O1139   1.264       .  A
C1133      O1141   1.260       .  A
C1133      C1634   1.478       .  S
O1134      C1142   1.261       .  A
O1135      C1142   1.264       .  A
C1136      O1143   1.263       .  A
C1136      O1137   1.262       .  A
C1136      C1290   1.481       .  S
C1138      O1140   1.265       .  A
C1138      O1144   1.259       .  A
C1138      C1386   1.482       .  S
C1142      C1282   1.477       .  S
In1145     O1147   2.228       .  S
In1145     O1148   2.230       .  S
In1145     O1156   2.230       .  S
In1145     O1150   2.256       .  S
In1145     O1152   2.279       .  S
In1145     O1153   2.256       .  S
In1145     O1154   2.203       .  S
In1145     O1157   2.211       .  S
C1146      O1152   1.269       .  A
C1146      O1154   1.259       .  A
C1146      C1662   1.482       .  S
O1147      C1155   1.265       .  A
O1148      C1155   1.264       .  A
C1149      O1156   1.261       .  A
C1149      O1150   1.268       .  A
C1149      C1269   1.477       .  S
C1151      O1153   1.267       .  A
C1151      O1157   1.260       .  A
C1151      C1317   1.465       .  S
C1155      C1273   1.469       .  S
In1158     O1160   2.227       .  S
In1158     O1161   2.239       .  S
In1158     O1169   2.245       .  S
In1158     O1163   2.250       .  S
In1158     O1165   2.278       .  S
In1158     O1166   2.263       .  S
In1158     O1167   2.210       .  S
In1158     O1170   2.221       .  S
C1159      O1165   1.266       .  A
C1159      O1167   1.258       .  A
C1159      C1686   1.479       .  S
O1160      C1168   1.263       .  A
O1161      C1168   1.263       .  A
C1162      O1169   1.264       .  A
C1162      O1163   1.265       .  A
C1162      C1265   1.479       .  S
C1164      O1166   1.264       .  A
C1164      O1170   1.258       .  A
C1164      C1422   1.467       .  S
C1168      C1274   1.470       .  S
In1171     O1173   2.234       .  S
In1171     O1174   2.245       .  S
In1171     O1182   2.251       .  S
In1171     O1176   2.258       .  S
In1171     O1178   2.242       .  S
In1171     O1179   2.267       .  S
In1171     O1180   2.255       .  S
In1171     O1183   2.240       .  S
C1172      O1178   1.259       .  A
C1172      O1180   1.259       .  A
C1172      C1350   1.470       .  S
O1173      C1181   1.260       .  A
O1174      C1181   1.265       .  A
C1175      O1182   1.260       .  A
C1175      O1176   1.261       .  A
C1175      C1257   1.478       .  S
C1177      O1179   1.257       .  A
C1177      O1183   1.259       .  A
C1177      C1630   1.476       .  S
C1181      C1261   1.472       .  S
In1184     O1186   2.235       .  S
In1184     O1187   2.237       .  S
In1184     O1195   2.245       .  S
In1184     O1189   2.253       .  S
In1184     O1191   2.273       .  S
In1184     O1192   2.276       .  S
In1184     O1193   2.202       .  S
In1184     O1196   2.216       .  S
C1185      O1191   1.266       .  A
C1185      O1193   1.259       .  A
C1185      C1365   1.476       .  S
O1186      C1194   1.262       .  A
O1187      C1194   1.266       .  A
C1188      O1195   1.263       .  A
C1188      O1189   1.264       .  A
C1188      C1266   1.479       .  S
C1190      O1192   1.265       .  A
C1190      O1196   1.258       .  A
C1190      C1413   1.470   1_545  S
C1194      C1262   1.473       .  S
In1197     O1199   2.227       .  S
In1197     O1200   2.251       .  S
In1197     O1208   2.252       .  S
In1197     O1202   2.244       .  S
In1197     O1204   2.267       .  S
In1197     O1205   2.263       .  S
In1197     O1206   2.215       .  S
In1197     O1209   2.200       .  S
C1198      O1204   1.270       .  A
C1198      O1206   1.259       .  A
C1198      C1425   1.471       .  S
O1199      C1207   1.262       .  A
O1200      C1207   1.269       .  A
C1201      O1208   1.266       .  A
C1201      O1202   1.267       .  A
C1201      C1278   1.483       .  S
C1203      O1205   1.270       .  A
C1203      O1209   1.260       .  A
C1203      C1346   1.464       .  S
C1207      C1253   1.476       .  S
In1210     O1212   2.238       .  S
In1210     O1213   2.255       .  S
In1210     O1221   2.249       .  S
In1210     O1215   2.254       .  S
In1210     O1217   2.252       .  S
In1210     O1218   2.275       .  S
In1210     O1219   2.237       .  S
In1210     O1222   2.265       .  S
C1211      O1217   1.264       .  A
C1211      O1219   1.259       .  A
C1211      C1406   1.471       .  S
O1212      C1220   1.259       .  A
O1213      C1220   1.265       .  A
C1214      O1221   1.262       .  A
C1214      O1215   1.263       .  A
C1214      C1258   1.479       .  S
C1216      O1218   1.255       .  A
C1216      O1222   1.256       .  A
C1216      C1622   1.477       .  S
C1220      C1254   1.476       .  S
In1223     O1225   2.228       .  S
In1223     O1226   2.237       .  S
In1223     O1234   2.243       .  S
In1223     O1228   2.246       .  S
In1223     O1230   2.267       .  S
In1223     O1231   2.275       .  S
In1223     O1232   2.204       .  S
In1223     O1235   2.214       .  S
C1224      O1230   1.266       .  A
C1224      O1232   1.260       .  A
C1224      C1445   1.475       .  S
O1225      C1233   1.262       .  A
O1226      C1233   1.267       .  A
C1227      O1234   1.264       .  A
C1227      O1228   1.264       .  A
C1227      C1286   1.476       .  S
C1229      O1231   1.265   1_556  A
C1229      O1235   1.258   1_556  A
C1229      C1674   1.470       .  S
C1233      C1249   1.471       .  S
In1236     O1238   2.236       .  S
In1236     O1239   2.233       .  S
In1236     O1247   2.239       .  S
In1236     O1241   2.262       .  S
In1236     O1243   2.281       .  S
In1236     O1244   2.270       .  S
In1236     O1245   2.214       .  S
In1236     O1248   2.214       .  S
C1237      O1243   1.267       .  A
C1237      O1245   1.259       .  A
C1237      C1389   1.483       .  S
O1238      C1246   1.262       .  A
O1239      C1246   1.265       .  A
C1240      O1247   1.260       .  A
C1240      O1241   1.265       .  A
C1240      C1270   1.477       .  S
C1242      O1244   1.263       .  A
C1242      O1248   1.261       .  A
C1242      C1305   1.477       .  S
C1246      C1250   1.471       .  S
C1249      C1250   1.340       .  D
C1249      H1251   1.087       .  S
C1250      H1252   1.087       .  S
C1253      C1254   1.340       .  D
C1253      H1255   1.087       .  S
C1254      H1256   1.087       .  S
C1257      C1258   1.346       .  D
C1257      H1259   1.086       .  S
C1258      H1260   1.086       .  S
C1261      C1262   1.340       .  D
C1261      H1263   1.087       .  S
C1262      H1264   1.087       .  S
C1265      C1266   1.345   1_565  D
C1265      H1267   1.086   1_565  S
C1266      H1268   1.086   1_545  S
C1269      C1270   1.342       .  D
C1269      H1271   1.087       .  S
C1270      H1272   1.087       .  S
C1273      C1274   1.342       .  D
C1273      H1275   1.088       .  S
C1274      H1276   1.088       .  S
C1277      C1278   1.348       .  D
C1277      H1279   1.086       .  S
C1278      H1280   1.086       .  S
C1281      C1282   1.343       .  D
C1281      H1283   1.087       .  S
C1282      H1284   1.087       .  S
C1285      C1286   1.344       .  D
C1285      H1287   1.086       .  S
C1286      H1288   1.086   1_554  S
C1289      C1290   1.345       .  D
C1289      H1291   1.086       .  S
C1290      H1292   1.086       .  S
C1293      C1294   1.341       .  D
C1293      H1295   1.087       .  S
C1294      H1296   1.087       .  S
C1297      C1298   1.338       .  D
C1297      H1299   1.087       .  S
C1298      H1300   1.088       .  S
C1301      C1302   1.342       .  D
C1301      H1303   1.088       .  S
C1302      H1304   1.088       .  S
C1305      C1306   1.340       .  D
C1305      H1307   1.086       .  S
C1306      H1308   1.087       .  S
C1309      C1310   1.343       .  D
C1309      H1311   1.087       .  S
C1310      H1312   1.087       .  S
C1313      C1314   1.344       .  D
C1313      H1315   1.087       .  S
C1314      H1316   1.087       .  S
C1317      C1318   1.343       .  D
C1317      H1319   1.087       .  S
C1318      H1320   1.087       .  S
C1321      C1322   1.344       .  D
C1321      H1323   1.087       .  S
C1322      H1324   1.086       .  S
C1325      C1326   1.346       .  D
C1325      H1327   1.086       .  S
C1326      H1328   1.086       .  S
C1329      C1330   1.342       .  D
C1329      H1331   1.087       .  S
C1330      H1332   1.087       .  S
C1333      C1334   1.347       .  D
C1333      H1335   1.087       .  S
C1334      H1336   1.086       .  S
C1337      C1338   1.345       .  D
C1337      H1339   1.086       .  S
C1338      H1340   1.086       .  S
C1341      C1342   1.339       .  D
C1341      H1343   1.088       .  S
C1342      H1344   1.087       .  S
C1345      C1346   1.345       .  D
C1345      H1347   1.085       .  S
C1346      H1348   1.086       .  S
C1349      C1350   1.344       .  D
C1349      H1351   1.086       .  S
C1350      H1352   1.087       .  S
C1353      C1354   1.342       .  D
C1353      H1355   1.087       .  S
C1354      H1356   1.087       .  S
C1357      C1358   1.340       .  D
C1357      H1359   1.087       .  S
C1358      H1360   1.087       .  S
C1361      C1362   1.347   1_554  D
C1361      H1363   1.086   1_554  S
C1362      H1364   1.086   1_556  S
C1365      C1366   1.344       .  D
C1365      H1367   1.086       .  S
C1366      H1368   1.087       .  S
C1369      C1370   1.341       .  D
C1369      H1371   1.088       .  S
C1370      H1372   1.088       .  S
C1373      C1374   1.339       .  D
C1373      H1375   1.087       .  S
C1374      H1376   1.088       .  S
C1377      C1378   1.346       .  D
C1377      H1379   1.085       .  S
C1378      H1380   1.086       .  S
C1381      C1382   1.338       .  D
C1381      H1383   1.088       .  S
C1382      H1384   1.088       .  S
C1385      C1386   1.343       .  D
C1385      H1387   1.087       .  S
C1386      H1388   1.085       .  S
C1389      C1390   1.346       .  D
C1389      H1391   1.086       .  S
C1390      H1392   1.087       .  S
C1393      C1394   1.343       .  D
C1393      H1395   1.087       .  S
C1394      H1396   1.087       .  S
C1397      C1398   1.338       .  D
C1397      H1399   1.088       .  S
C1398      H1400   1.088       .  S
C1401      C1402   1.342       .  D
C1401      H1403   1.087       .  S
C1402      H1404   1.088       .  S
C1405      C1406   1.346       .  D
C1405      H1407   1.086       .  S
C1406      H1408   1.087       .  S
C1409      C1410   1.341       .  D
C1409      H1411   1.088       .  S
C1410      H1412   1.087       .  S
C1413      C1414   1.347       .  D
C1413      H1415   1.086       .  S
C1414      H1416   1.085       .  S
C1417      C1418   1.339       .  D
C1417      H1419   1.088       .  S
C1418      H1420   1.087       .  S
C1421      C1422   1.346       .  D
C1421      H1423   1.086       .  S
C1422      H1424   1.087       .  S
C1425      C1426   1.339       .  D
C1425      H1427   1.087       .  S
C1426      H1428   1.086       .  S
C1429      C1430   1.345       .  D
C1429      H1431   1.087       .  S
C1430      H1432   1.087       .  S
C1433      C1434   1.341       .  D
C1433      H1435   1.087       .  S
C1434      H1436   1.087       .  S
C1437      C1438   1.340       .  D
C1437      H1439   1.088       .  S
C1438      H1440   1.088       .  S
C1441      C1442   1.342       .  D
C1441      H1443   1.088       .  S
C1442      H1444   1.088       .  S
C1445      C1446   1.343       .  D
C1445      H1447   1.086       .  S
C1446      H1448   1.087       .  S
C1449      C1450   1.343   1_545  D
C1449      H1451   1.087       .  S
C1450      H1452   1.087       .  S
C1453      C1454   1.339       .  D
C1453      H1455   1.087       .  S
C1454      H1456   1.087       .  S
C1457      C1458   1.348       .  D
C1457      H1459   1.086       .  S
C1458      H1460   1.085       .  S
C1461      C1462   1.339       .  D
C1461      H1463   1.087       .  S
C1462      H1464   1.087       .  S
C1465      C1466   1.343       .  D
C1465      H1467   1.086       .  S
C1466      H1468   1.087       .  S
C1469      C1470   1.343       .  D
C1469      H1471   1.087       .  S
C1470      H1472   1.087       .  S
C1473      C1474   1.345       .  D
C1473      H1475   1.086       .  S
C1474      H1476   1.087       .  S
C1477      C1478   1.345       .  D
C1477      H1479   1.087       .  S
C1478      H1480   1.086       .  S
C1481      C1482   1.344       .  D
C1481      H1483   1.087       .  S
C1482      H1484   1.086       .  S
C1485      C1486   1.340       .  D
C1485      H1487   1.088       .  S
C1486      H1488   1.087       .  S
C1489      C1490   1.347       .  D
C1489      H1491   1.086       .  S
C1490      H1492   1.086       .  S
C1493      C1494   1.342   1_556  D
C1493      H1495   1.087       .  S
C1494      H1496   1.087       .  S
C1497      C1498   1.344       .  D
C1497      H1499   1.086       .  S
C1498      H1500   1.086       .  S
C1501      C1502   1.340       .  D
C1501      H1503   1.088       .  S
C1502      H1504   1.088       .  S
C1505      C1506   1.348       .  D
C1505      H1507   1.086       .  S
C1506      H1508   1.085       .  S
C1509      C1510   1.344       .  D
C1509      H1511   1.087       .  S
C1510      H1512   1.087       .  S
C1513      C1514   1.338       .  D
C1513      H1515   1.088       .  S
C1514      H1516   1.088       .  S
C1517      C1518   1.344       .  D
C1517      H1519   1.086       .  S
C1518      H1520   1.086       .  S
C1521      C1522   1.343       .  D
C1521      H1523   1.087       .  S
C1522      H1524   1.087       .  S
C1525      C1526   1.341   1_565  D
C1525      H1527   1.087       .  S
C1526      H1528   1.087       .  S
C1529      C1530   1.339       .  D
C1529      H1531   1.087       .  S
C1530      H1532   1.087       .  S
C1533      C1534   1.345       .  D
C1533      H1535   1.086       .  S
C1534      H1536   1.087       .  S
C1537      C1538   1.347       .  D
C1537      H1539   1.087       .  S
C1538      H1540   1.085   1_455  S
C1541      C1542   1.339       .  D
C1541      H1543   1.087       .  S
C1542      H1544   1.087       .  S
C1545      C1546   1.345       .  D
C1545      H1547   1.087       .  S
C1546      H1548   1.086       .  S
C1549      C1550   1.344       .  D
C1549      H1551   1.087       .  S
C1550      H1552   1.086       .  S
C1553      C1554   1.342       .  D
C1553      H1555   1.088       .  S
C1554      H1556   1.087       .  S
C1557      C1558   1.345       .  D
C1557      H1559   1.086       .  S
C1558      H1560   1.087       .  S
C1561      C1562   1.342       .  D
C1561      H1563   1.087       .  S
C1562      H1564   1.086       .  S
C1565      C1566   1.347       .  D
C1565      H1567   1.086       .  S
C1566      H1568   1.086       .  S
C1569      C1570   1.340       .  D
C1569      H1571   1.088       .  S
C1570      H1572   1.087       .  S
C1573      C1574   1.341       .  D
C1573      H1575   1.086       .  S
C1574      H1576   1.087       .  S
C1577      C1578   1.342       .  D
C1577      H1579   1.087       .  S
C1578      H1580   1.087       .  S
C1581      C1582   1.339       .  D
C1581      H1583   1.087       .  S
C1582      H1584   1.088       .  S
C1585      C1586   1.345       .  D
C1585      H1587   1.086   1_455  S
C1586      H1588   1.087       .  S
C1589      C1590   1.348       .  D
C1589      H1591   1.086       .  S
C1590      H1592   1.086       .  S
C1593      C1594   1.345       .  D
C1593      H1595   1.086       .  S
C1594      H1596   1.087       .  S
C1597      C1598   1.341       .  D
C1597      H1599   1.087       .  S
C1598      H1600   1.087       .  S
C1601      C1602   1.344       .  D
C1601      H1603   1.087       .  S
C1602      H1604   1.087       .  S
C1605      C1606   1.344       .  D
C1605      H1607   1.086       .  S
C1606      H1608   1.086       .  S
C1609      C1610   1.346       .  D
C1609      H1611   1.086       .  S
C1610      H1612   1.086       .  S
C1613      C1614   1.341       .  D
C1613      H1615   1.087       .  S
C1614      H1616   1.088       .  S
C1617      C1618   1.346       .  D
C1617      H1619   1.087       .  S
C1618      H1620   1.086       .  S
C1621      C1622   1.348       .  D
C1621      H1623   1.085       .  S
C1622      H1624   1.086       .  S
C1625      C1626   1.342       .  D
C1625      H1627   1.088       .  S
C1626      H1628   1.088       .  S
C1629      C1630   1.340       .  D
C1629      H1631   1.088       .  S
C1630      H1632   1.087       .  S
C1633      C1634   1.343       .  D
C1633      H1635   1.087       .  S
C1634      H1636   1.086       .  S
C1637      C1638   1.345       .  D
C1637      H1639   1.087       .  S
C1638      H1640   1.087       .  S
C1641      C1642   1.344       .  D
C1641      H1643   1.086       .  S
C1642      H1644   1.086       .  S
C1645      C1646   1.342       .  D
C1645      H1647   1.087       .  S
C1646      H1648   1.087       .  S
C1649      C1650   1.344       .  D
C1649      H1651   1.086       .  S
C1650      H1652   1.086       .  S
C1653      C1654   1.343       .  D
C1653      H1655   1.087       .  S
C1654      H1656   1.087       .  S
C1657      C1658   1.343       .  D
C1657      H1659   1.087       .  S
C1658      H1660   1.087       .  S
C1661      C1662   1.347       .  D
C1661      H1663   1.086       .  S
C1662      H1664   1.085       .  S
C1665      C1666   1.341       .  D
C1665      H1667   1.088       .  S
C1666      H1668   1.087       .  S
C1669      C1670   1.345       .  D
C1669      H1671   1.086       .  S
C1670      H1672   1.086       .  S
C1673      C1674   1.347       .  D
C1673      H1675   1.085       .  S
C1674      H1676   1.086       .  S
C1677      C1678   1.342       .  D
C1677      H1679   1.087       .  S
C1678      H1680   1.087       .  S
C1681      C1682   1.345       .  D
C1681      H1683   1.086       .  S
C1682      H1684   1.087       .  S
C1685      C1686   1.345       .  D
C1685      H1687   1.087       .  S
C1686      H1688   1.086       .  S
C1689      C1690   1.344       .  D
C1689      H1691   1.086       .  S
C1690      H1692   1.086       .  S
C1693      C1694   1.345       .  D
C1693      H1695   1.086       .  S
C1694      H1696   1.087       .  S
C1697      C1698   1.347       .  D
C1697      H1699   1.085       .  S
C1698      H1700   1.086       .  S
C1701      C1702   1.343       .  D
C1701      H1703   1.087       .  S
C1702      H1704   1.087       .  S
C1705      C1706   1.342       .  D
C1705      H1707   1.087       .  S
C1706      H1708   1.085       .  S
C1709      C1710   1.338       .  D
C1709      H1711   1.088       .  S
C1710      H1712   1.087       .  S
C1713      C1714   1.344   1_545  D
C1713      H1715   1.087   1_545  S
C1714      H1716   1.087       .  S
C1717      C1718   1.340       .  D
C1717      H1719   1.087       .  S
C1718      H1720   1.088       .  S
C1721      C1722   1.343   1_554  D
C1721      H1723   1.086   1_554  S
C1722      H1724   1.086   1_556  S
C1725      C1726   1.341       .  D
C1725      H1727   1.087       .  S
C1726      H1728   1.087       .  S
C1729      C1730   1.343       .  D
C1729      H1731   1.086       .  S
C1730      H1732   1.087   1_455  S
C1733      C1734   1.345       .  D
C1733      H1735   1.086       .  S
C1734      H1736   1.087       .  S
C1737      C1738   1.343       .  D
C1737      H1739   1.086       .  S
C1738      H1740   1.087       .  S
C1741      C1742   1.341       .  D
C1741      H1743   1.087       .  S
C1742      H1744   1.087       .  S
C1745      C1746   1.344       .  D
C1745      H1747   1.086       .  S
C1746      H1748   1.086       .  S
C1749      C1750   1.347       .  D
C1749      H1751   1.087       .  S
C1750      H1752   1.086       .  S
C1753      C1754   1.344   1_655  D
C1753      H1755   1.087   1_655  S
C1754      H1756   1.087   1_455  S
C1757      C1758   1.345       .  D
C1757      H1759   1.087       .  S
C1758      H1760   1.086       .  S
C1761      C1762   1.339       .  D
C1761      H1763   1.088       .  S
C1762      H1764   1.088       .  S
C1765      C1766   1.345       .  D
C1765      H1767   1.087       .  S
C1766      H1768   1.086       .  S
C1769      C1770   1.345       .  D
C1769      H1771   1.087       .  S
C1770      H1772   1.086       .  S
C1773      C1774   1.345       .  D
C1773      H1775   1.086       .  S
C1774      H1776   1.086       .  S
C1777      C1778   1.339       .  D
C1777      H1779   1.088       .  S
C1778      H1780   1.087       .  S
C1781      C1782   1.342       .  D
C1781      H1783   1.087       .  S
C1782      H1784   1.087       .  S
C1785      C1786   1.343       .  D
C1785      H1787   1.087       .  S
C1786      H1788   1.087       .  S
C1789      C1790   1.345       .  D
C1789      H1791   1.086       .  S
C1790      H1792   1.087       .  S
C1793      C1794   1.345       .  D
C1793      H1795   1.087       .  S
C1794      H1796   1.086       .  S
C1797      C1798   1.347       .  D
C1797      H1799   1.086       .  S
C1798      H1800   1.087       .  S
C1801      C1802   1.348       .  D
C1801      H1803   1.086       .  S
C1802      H1804   1.085       .  S
C1805      C1806   1.342       .  D
C1805      H1807   1.087       .  S
C1806      H1808   1.087       .  S
C1809      C1810   1.339       .  D
C1809      H1811   1.088       .  S
C1810      H1812   1.088       .  S
C1813      C1814   1.345       .  D
C1813      H1815   1.086       .  S
C1814      H1816   1.087       .  S
C1817      C1818   1.345       .  D
C1817      H1819   1.087       .  S
C1818      H1820   1.086   1_545  S
C1821      C1822   1.345       .  D
C1821      H1823   1.087       .  S
C1822      H1824   1.087       .  S
C1825      C1826   1.343       .  D
C1825      H1827   1.086       .  S
C1826      H1828   1.087       .  S
C1829      C1830   1.346       .  D
C1829      H1831   1.087       .  S
C1830      H1832   1.086       .  S
C1833      C1834   1.346       .  D
C1833      H1835   1.086       .  S
C1834      H1836   1.086   1_554  S
C1837      C1838   1.340       .  D
C1837      H1839   1.088       .  S
C1838      H1840   1.088       .  S
C1841      C1842   1.346       .  D
C1841      H1843   1.086       .  S
C1842      H1844   1.087       .  S
C1845      C1846   1.347       .  D
C1845      H1847   1.086       .  S
C1846      H1848   1.085       .  S
C1849      C1850   1.346   1_655  D
C1849      H1851   1.087   1_655  S
C1850      H1852   1.087   1_455  S
C1853      C1854   1.343       .  D
C1853      H1855   1.087       .  S
C1854      H1856   1.087       .  S
C1857      C1858   1.342       .  D
C1857      H1859   1.085       .  S
C1858      H1860   1.087       .  S
C1861      C1862   1.343       .  D
C1861      H1863   1.087       .  S
C1862      H1864   1.087       .  S
C1865      C1866   1.340       .  D
C1865      H1867   1.088       .  S
C1866      H1868   1.087       .  S
C1869      C1870   1.344       .  D
C1869      H1871   1.087       .  S
C1870      H1872   1.087       .  S
C1873      C1874   1.347       .  D
C1873      H1875   1.086       .  S
C1874      H1876   1.085       .  S
C1877      C1878   1.345       .  D
C1877      H1879   1.087       .  S
C1878      H1880   1.086       .  S
C1881      C1882   1.347       .  D
C1881      H1883   1.085       .  S
C1882      H1884   1.086       .  S
C1885      C1886   1.342       .  D
C1885      H1887   1.087       .  S
C1886      H1888   1.087       .  S
C1889      C1890   1.344       .  D
C1889      H1891   1.086       .  S
C1890      H1892   1.087       .  S
C1893      C1894   1.345       .  D
C1893      H1895   1.086       .  S
C1894      H1896   1.086       .  S
C1897      C1898   1.345       .  D
C1897      H1899   1.087       .  S
C1898      H1900   1.086       .  S
C1901      C1902   1.346       .  D
C1901      H1903   1.087       .  S
C1902      H1904   1.085       .  S
C1905      C1906   1.338       .  D
C1905      H1907   1.087       .  S
C1906      H1908   1.087       .  S
C1909      C1910   1.343       .  D
C1909      H1911   1.087       .  S
C1910      H1912   1.087       .  S
C1913      C1914   1.344       .  D
C1913      H1915   1.086       .  S
C1914      H1916   1.087       .  S
C1917      C1918   1.344       .  D
C1917      H1919   1.087       .  S
C1918      H1920   1.087       .  S
C1921      C1922   1.343       .  D
C1921      H1923   1.087       .  S
C1922      H1924   1.087       .  S
C1925      C1926   1.344       .  D
C1925      H1927   1.085       .  S
C1926      H1928   1.087       .  S
C1929      C1930   1.339       .  D
C1929      H1931   1.087       .  S
C1930      H1932   1.088       .  S
C1933      C1934   1.345       .  D
C1933      H1935   1.086       .  S
C1934      H1936   1.087       .  S
C1937      C1938   1.343       .  D
C1937      H1939   1.087       .  S
C1938      H1940   1.086       .  S
C1941      C1942   1.342       .  D
C1941      H1943   1.087       .  S
C1942      H1944   1.087       .  S
C1945      C1946   1.347       .  D
C1945      H1947   1.086       .  S
C1946      H1948   1.086       .  S
C1949      C1950   1.348       .  D
C1949      H1951   1.086       .  S
C1950      H1952   1.085       .  S
C1953      C1954   1.338       .  D
C1953      H1955   1.088       .  S
C1954      H1956   1.087       .  S
C1957      C1958   1.346       .  D
C1957      H1959   1.086       .  S
C1958      H1960   1.085       .  S
C1961      C1962   1.343       .  D
C1961      H1963   1.086       .  S
C1962      H1964   1.086       .  S
C1965      C1966   1.346       .  D
C1965      H1967   1.086       .  S
C1966      H1968   1.086       .  S
C1969      C1970   1.340       .  D
C1969      H1971   1.087       .  S
C1970      H1972   1.086       .  S
C1973      C1974   1.343       .  D
C1973      H1975   1.087       .  S
C1974      H1976   1.087       .  S
C1977      C1978   1.342       .  D
C1977      H1979   1.087       .  S
C1978      H1980   1.087       .  S
C1981      C1982   1.340       .  D
C1981      H1983   1.087       .  S
C1982      H1984   1.087       .  S
C1985      C1986   1.348       .  D
C1985      H1987   1.085       .  S
C1986      H1988   1.086       .  S
C1989      C1990   1.342       .  D
C1989      H1991   1.085       .  S
C1990      H1992   1.087       .  S
C1993      C1994   1.345       .  D
C1993      H1995   1.086       .  S
C1994      H1996   1.086       .  S
C1997      C1998   1.344       .  D
C1997      H1999   1.086   1_554  S
C1998      H2000   1.087       .  S
C2001      C2002   1.345       .  D
C2001      H2003   1.086       .  S
C2002      H2004   1.086       .  S
C2005      C2006   1.341       .  D
C2005      H2007   1.088       .  S
C2006      H2008   1.088       .  S
C2009      C2010   1.340       .  D
C2009      H2011   1.088       .  S
C2010      H2012   1.087       .  S
C2013      C2014   1.340       .  D
C2013      H2015   1.087       .  S
C2014      H2016   1.086       .  S
