geometry optimzed in LAMMPS
_audit_creation_date              2020-12-01 
_audit_creation_method            'lammps2cif' 
_symmetry_space_group_name_H-M    'P1' 
_symmetry_Int_Tables_number       1 
_symmetry_cell_setting            triclinic 
loop_ 
_symmetry_equiv_pos_as_xyz 
  x,y,z 
_cell_length_a                    62.00511179 
_cell_length_b                    62.246439300947614 
_cell_length_c                    62.09283537557264 
_cell_angle_alpha                 89.94393798910438 
_cell_angle_beta                  90.00838087605248 
_cell_angle_gamma                 89.88756978001163 
loop_ 
_atom_site_label 
_atom_site_type_symbol 
_atom_site_fract_x 
_atom_site_fract_y 
_atom_site_fract_z 
_atom_site_charge 
In1        In  0.84461383  0.58532572  0.01052904     1.36900
C2          C  0.86001258  0.56497195  0.04426776     0.79100
O3          O  0.82655859  0.55462817  0.00571941    -0.59400
O4          O  0.85379106  0.56104764  0.98568749    -0.50300
C5          C  0.81381163  0.60782260  0.99108620     0.71700
O6          O  0.81104760  0.60065202  0.01008243    -0.45100
C7          C  0.87470135  0.61533121  0.01626460     0.76500
O8          O  0.84221132  0.57526744  0.04536492    -0.57000
O9          O  0.87499398  0.60214719  0.00067598    -0.47100
O10         O  0.86896517  0.56512097  0.02602070    -0.53400
C11         C  0.83940693  0.54773375  0.99144293     0.86600
O12         O  0.83185230  0.60320147  0.98281939    -0.55300
O13         O  0.85796514  0.61416875  0.02791359    -0.58600
In14       In  0.84081298  0.42121759  0.94436783     1.36900
C15         C  0.85306006  0.44014883  0.90821427     0.79100
O16         O  0.82342582  0.45134800  0.95327287    -0.59400
O17         O  0.85533538  0.44647240  0.96553505    -0.50300
C18         C  0.81067087  0.40085744  0.96688598     0.71700
O19         O  0.80667261  0.40850513  0.94828258    -0.45100
C20         C  0.86670473  0.38794461  0.93804099     0.76500
O21         O  0.83536147  0.42978801  0.90912636    -0.57000
O22         O  0.86943190  0.40109592  0.95342717    -0.47100
O23         O  0.86371769  0.44050148  0.92551644    -0.53400
C24         C  0.83921876  0.45895141  0.96367568     0.86600
O25         O  0.82971392  0.40400723  0.97344532    -0.55300
O26         O  0.85017171  0.39148420  0.92661870    -0.58600
In27       In  0.80489690  0.83622328  0.90267226     1.36900
C28         C  0.84407759  0.82014635  0.89706203     0.79100
O29         O  0.79631944  0.80582978  0.92054149    -0.59400
O30         O  0.78508769  0.80969068  0.88840566    -0.50300
C31         C  0.78160755  0.85854637  0.93103772     0.71700
O32         O  0.80059071  0.85222042  0.93534427    -0.45100
C33         C  0.80906042  0.86534150  0.87137622     0.76500
O34         O  0.84024431  0.83301563  0.91246618    -0.57000
O35         O  0.79549127  0.85018840  0.87054535    -0.47100
O36         O  0.82803076  0.81569733  0.88551830    -0.53400
C37         C  0.78669444  0.79748051  0.90465278     0.86600
O38         O  0.77501573  0.85308903  0.91261371    -0.55300
O39         O  0.81970414  0.86599280  0.88868744    -0.58600
In40       In  0.73510942  0.67175647  0.90091512     1.36900
C41         C  0.69743177  0.68831864  0.88996692     0.79100
O42         O  0.74188118  0.70306885  0.91746383    -0.59400
O43         O  0.75846942  0.69640149  0.88820398    -0.50300
C44         C  0.75602965  0.65202276  0.93264973     0.71700
O45         O  0.73634317  0.65726662  0.93473235    -0.45100
C46         C  0.73172739  0.64022082  0.87220555     0.76500
O47         O  0.69965536  0.67811206  0.90756902    -0.57000
O48         O  0.74495687  0.65556660  0.87006155    -0.47100
O49         O  0.71436146  0.69008501  0.87891049    -0.53400
C50         C  0.75491184  0.70967618  0.90326415     0.86600
O51         O  0.76401682  0.65634243  0.91445511    -0.55300
O52         O  0.72134812  0.64050182  0.88969649    -0.58600
In53       In  0.69321146  0.92299192  0.01247470     1.36900
C54         C  0.68269404  0.94168352  0.04936314     0.79100
O55         O  0.71081246  0.95306670  0.00386670    -0.59400
O56         O  0.67899638  0.94847466  0.99145072    -0.50300
C57         C  0.72326751  0.90377840  0.98892378     0.71700
O58         O  0.72661300  0.90824731  0.00864272    -0.45100
C59         C  0.66603893  0.89014615  0.01612755     0.76500
O60         O  0.70045411  0.93154287  0.04744456    -0.57000
O61         O  0.66358707  0.90500807  0.00237007    -0.47100
O62         O  0.67106496  0.94169124  0.03271603    -0.53400
C63         C  0.69523082  0.96072283  0.99313703     0.86600
O64         O  0.70481782  0.90907873  0.98211911    -0.55300
O65         O  0.68290869  0.89185613  0.02744994    -0.58600
In66       In  0.69375217  0.08743903  0.94564923     1.36900
C67         C  0.68357080  0.07211808  0.90754443     0.79100
O68         O  0.71100840  0.05627107  0.95111367    -0.59400
O69         O  0.68078056  0.06151243  0.96667549    -0.50300
C70         C  0.72335960  0.10667871  0.96955641     0.71700
O71         O  0.72721907  0.10189348  0.95003079    -0.45100
C72         C  0.66420233  0.11810942  0.94340620     0.76500
O73         O  0.70030960  0.08366411  0.90994537    -0.57000
O74         O  0.66269981  0.10225337  0.95610594    -0.47100
O75         O  0.67291839  0.06856575  0.92442732    -0.53400
C76         C  0.69617215  0.04865509  0.96285140     0.86600
O77         O  0.70468582  0.10175318  0.97588601    -0.55300
O78         O  0.68157734  0.11880657  0.93278902    -0.58600
In79       In  0.80013407  0.17437485  0.05933925     1.36900
C80         C  0.83725376  0.19263835  0.06864937     0.79100
O81         O  0.79338651  0.20518255  0.04208749    -0.59400
O82         O  0.77700539  0.19947491  0.07164286    -0.50300
C83         C  0.77904656  0.15209361  0.02946731     0.71700
O84         O  0.79805535  0.15887573  0.02614490    -0.45100
C85         C  0.80560395  0.14359436  0.08870554     0.76500
O86         O  0.83510638  0.18154757  0.05158879    -0.57000
O87         O  0.79115380  0.15794632  0.09040651    -0.47100
O88         O  0.82060925  0.19406186  0.08021746    -0.53400
C89         C  0.78092212  0.21252257  0.05643564     0.86600
O90         O  0.77140391  0.15717281  0.04760832    -0.55300
O91         O  0.81649436  0.14470299  0.07155042    -0.58600
In92       In  0.72848958  0.33714987  0.05502768     1.36900
C93         C  0.69126533  0.31765414  0.06308473     0.79100
O94         O  0.74035633  0.30742714  0.03854186    -0.59400
O95         O  0.74929420  0.31264121  0.07137285    -0.50300
C96         C  0.75134492  0.35747416  0.02492528     0.71700
O97         O  0.73189194  0.35203165  0.02153919    -0.45100
C98         C  0.72334157  0.36821602  0.08387839     0.76500
O99         O  0.69333611  0.32969710  0.04664969    -0.57000
O100        O  0.73800513  0.35412617  0.08521132    -0.47100
O101        O  0.70805782  0.31555920  0.07424254    -0.53400
C102        C  0.74969234  0.30026964  0.05520420     0.86600
O103        O  0.75822457  0.35295446  0.04351464    -0.55300
O104        O  0.71184259  0.36684074  0.06715596    -0.58600
In105      In  0.85003623  0.42369875  0.25682081     1.36900
C106        C  0.83246378  0.41155777  0.29356251     0.79100
O107        O  0.81883695  0.44071454  0.25141953    -0.59400
O108        O  0.82404962  0.41065456  0.23553588    -0.50300
C109        C  0.86997168  0.45354351  0.23351536     0.71700
O110        O  0.86575663  0.45651639  0.25334093    -0.45100
C111        C  0.88267309  0.39688292  0.26272701     0.76500
O112        O  0.84148679  0.42987151  0.29181131    -0.57000
O113        O  0.86848400  0.39385158  0.24829324    -0.47100
O114        O  0.83271689  0.40025928  0.27670261    -0.53400
C115        C  0.81112718  0.42594755  0.23970664     0.86600
O116        O  0.86389102  0.43557746  0.22623814    -0.55300
O117        O  0.88071104  0.41436736  0.27289843    -0.58600
In118      In  0.68234714  0.42531233  0.19644246     1.36900
C119        C  0.69852433  0.41586192  0.15838007     0.79100
O120        O  0.71366741  0.44164557  0.20280031    -0.59400
O121        O  0.70819263  0.41132246  0.21776269    -0.50300
C122        C  0.66288164  0.45729925  0.21699661     0.71700
O123        O  0.67124372  0.45993252  0.19856961    -0.45100
C124        C  0.65098762  0.39641219  0.19236342     0.76500
O125        O  0.68642419  0.43217803  0.16082510    -0.57000
O126        O  0.66533371  0.39509071  0.20687768    -0.47100
O127        O  0.70209607  0.40518558  0.17524632    -0.53400
C128        C  0.72126241  0.42655143  0.21411995     0.86600
O129        O  0.66459727  0.43853136  0.22455959    -0.55300
O130        O  0.65211344  0.41322080  0.18100651    -0.58600
In131      In  0.60848882  0.53977392  0.30805775     1.36900
C132        C  0.59221691  0.57654981  0.32127394     0.79100
O133        O  0.57608782  0.53644848  0.29299619    -0.59400
O134        O  0.58330722  0.51756041  0.32085728    -0.50300
C135        C  0.62449697  0.51799401  0.27521065     0.71700
O136        O  0.62226878  0.53826322  0.27423000    -0.45100
C137        C  0.64239310  0.54165985  0.33386915     0.76500
O138        O  0.60157329  0.57513396  0.30309100    -0.57000
O139        O  0.62716373  0.52842610  0.33685733    -0.47100
O140        O  0.59180553  0.55946028  0.33219312    -0.53400
C141        C  0.56942474  0.52308846  0.30686611     0.86600
O142        O  0.61892799  0.50956621  0.29284565    -0.55300
O143        O  0.64064825  0.55285321  0.31698348    -0.58600
In144      In  0.44268948  0.47531182  0.31012746     1.36900
C145        C  0.45930563  0.43808260  0.32209781     0.79100
O146        O  0.47356620  0.48233866  0.29304530    -0.59400
O147        O  0.46847580  0.49605249  0.32425086    -0.50300
C148        C  0.42335901  0.49913710  0.28024054     0.71700
O149        O  0.42864542  0.47970731  0.27660254    -0.45100
C150        C  0.40972981  0.47056722  0.33686868     0.76500
O151        O  0.44942550  0.43994003  0.30418927    -0.57000
O152        O  0.42434658  0.48453566  0.33964066    -0.47100
O153        O  0.46083990  0.45516624  0.33287197    -0.53400
C154        C  0.48109554  0.49342221  0.30839020     0.86600
O155        O  0.42809693  0.50571508  0.29889859    -0.55300
O156        O  0.41146709  0.45992660  0.31961130    -0.58600
In157      In  0.94074965  0.53149475  0.14684902     1.36900
C158        C  0.95782465  0.56985279  0.13985335     0.79100
O159        O  0.97027061  0.52305946  0.16541723    -0.59400
O160        O  0.96608498  0.50921212  0.13426198    -0.50300
C161        C  0.91764196  0.50990360  0.17591157     0.71700
O162        O  0.92623359  0.52784332  0.18036549    -0.45100
C163        C  0.91220273  0.53629081  0.11538629     0.76500
O164        O  0.94359422  0.56707886  0.15429339    -0.57000
O165        O  0.92750531  0.52281352  0.11421021    -0.47100
O166        O  0.96356667  0.55304818  0.13016819    -0.53400
C167        C  0.97820510  0.51170393  0.15050796     0.86600
O168        O  0.92112986  0.50351004  0.15694462    -0.55300
O169        O  0.91134989  0.54651582  0.13290903    -0.58600
In170      In  0.10624196  0.46892992  0.15070995     1.36900
C171        C  0.08945206  0.43179015  0.13868171     0.79100
O172        O  0.07536688  0.47477569  0.16815538    -0.59400
O173        O  0.08053877  0.49019756  0.13776354    -0.50300
C174        C  0.12678228  0.49168868  0.18050833     0.71700
O175        O  0.12123792  0.47233330  0.18404070    -0.45100
C176        C  0.13724166  0.46589189  0.12197549     0.76500
O177        O  0.10083274  0.43311034  0.15571052    -0.57000
O178        O  0.12223669  0.47965862  0.12043404    -0.47100
O179        O  0.08690445  0.44920030  0.12864327    -0.53400
C180        C  0.06767918  0.48623662  0.15311981     0.86600
O181        O  0.12149866  0.49867823  0.16215595    -0.55300
O182        O  0.13691799  0.45476242  0.13900766    -0.58600
In183      In  0.35236100  0.58296890  0.19899584     1.36900
C184        C  0.33390267  0.59035113  0.16131995     0.79100
O185        O  0.32236419  0.56483501  0.20753406    -0.59400
O186        O  0.32662712  0.59623563  0.22050290    -0.50300
C187        C  0.37539228  0.55536713  0.22234316     0.71700
O188        O  0.36917350  0.55079951  0.20339154    -0.45100
C189        C  0.38225978  0.61296319  0.19323071     0.76500
O190        O  0.34561314  0.57376475  0.16412768    -0.57000
O191        O  0.36744781  0.61456480  0.20720104    -0.47100
O192        O  0.33201495  0.60229655  0.17757552    -0.53400
C193        C  0.31439502  0.58008256  0.21842886     0.86600
O194        O  0.36943930  0.57364603  0.22885220    -0.55300
O195        O  0.38212629  0.59550595  0.18285142    -0.58600
In196      In  0.18663506  0.58033013  0.26543772     1.36900
C197        C  0.20323888  0.58901189  0.30347243     0.79100
O198        O  0.21805071  0.56359244  0.25908701    -0.59400
O199        O  0.21267681  0.59424503  0.24465804    -0.50300
C200        C  0.16768992  0.55054027  0.24100366     0.71700
O201        O  0.17291993  0.54664011  0.26040562    -0.45100
C202        C  0.15696666  0.61099174  0.27069587     0.76500
O203        O  0.19092827  0.57283252  0.30109643    -0.57000
O204        O  0.17150737  0.61181637  0.25638755    -0.47100
O205        O  0.20698141  0.59952758  0.28656487    -0.53400
C206        C  0.22563478  0.57878650  0.24786257     0.86600
O207        O  0.17149544  0.56956563  0.23508740    -0.55300
O208        O  0.15650679  0.59347350  0.28101596    -0.58600
In209      In  0.05095851  0.83308051  0.56563237     1.36900
C210        C  0.08693641  0.84497838  0.54625551     0.79100
O211        O  0.04446712  0.81449584  0.53538149    -0.59400
O212        O  0.02773812  0.84411229  0.54036482    -0.50300
C213        C  0.02834881  0.80322056  0.58617244     0.71700
O214        O  0.04805347  0.80013718  0.58131070    -0.45100
C215        C  0.05658070  0.86138688  0.59715528     0.76500
O216        O  0.08602040  0.82754105  0.55699918    -0.57000
O217        O  0.04206208  0.86346566  0.58288312    -0.47100
O218        O  0.06958632  0.85560374  0.54567005    -0.53400
C219        C  0.03143258  0.82832974  0.52793633     0.86600
O220        O  0.02117113  0.82157397  0.58115943    -0.55300
O221        O  0.06733121  0.84414504  0.59581181    -0.58600
In222      In  0.97913850  0.82678404  0.40212973     1.36900
C223        C  0.94031171  0.83406438  0.41809362     0.79100
O224        O  0.98798007  0.80872864  0.43258833    -0.59400
O225        O  0.99987441  0.84046092  0.42802484    -0.50300
C226        C  0.00289946  0.80016801  0.37848858     0.71700
O227        O  0.98430268  0.79477966  0.38517059    -0.45100
C228        C  0.97478059  0.85803806  0.37332468     0.76500
O229        O  0.94353423  0.81815077  0.40566458    -0.57000
O230        O  0.98783871  0.85899151  0.38896860    -0.47100
O231        O  0.95680853  0.84494404  0.42244397    -0.53400
C232        C  0.99825457  0.82444260  0.44047598     0.86600
O233        O  0.00887089  0.81857133  0.38449539    -0.55300
O234        O  0.96461308  0.84053095  0.37197046    -0.58600
In235      In  0.94351757  0.78900207  0.81555061     1.36900
C236        C  0.93464613  0.82613720  0.79736796     0.79100
O237        O  0.95972430  0.77950393  0.78480274    -0.59400
O238        O  0.92727364  0.76931933  0.78992955    -0.50300
C239        C  0.97291992  0.76560206  0.83591981     0.71700
O240        O  0.97721059  0.78442920  0.82923898    -0.45100
C241        C  0.91709843  0.79461085  0.84873706     0.76500
O242        O  0.95211976  0.82359251  0.80783887    -0.57000
O243        O  0.91438776  0.77998779  0.83479490    -0.47100
O244        O  0.92236626  0.81005088  0.79681366    -0.53400
C245        C  0.94324056  0.77023971  0.77720745     0.86600
O246        O  0.95411430  0.75921172  0.83149928    -0.55300
O247        O  0.93377307  0.80591147  0.84589335    -0.58600
In248      In  0.94030429  0.72075997  0.65016380     1.36900
C249        C  0.93210892  0.68256056  0.66681687     0.79100
O250        O  0.95697406  0.72834849  0.68116525    -0.59400
O251        O  0.92591825  0.74192638  0.67604842    -0.50300
C252        C  0.96993189  0.74371436  0.62898683     0.71700
O253        O  0.97426348  0.72522671  0.63652908    -0.45100
C254        C  0.91100227  0.71576142  0.61920109     0.76500
O255        O  0.94853591  0.68536929  0.65486872    -0.57000
O256        O  0.90956153  0.73022013  0.63350253    -0.47100
O257        O  0.92085828  0.69910980  0.67008217    -0.53400
C258        C  0.94166118  0.73939188  0.68885091     0.86600
O259        O  0.95085102  0.74986136  0.63250989    -0.55300
O260        O  0.92792887  0.70448875  0.62041178    -0.58600
In261      In  0.05450614  0.67606898  0.89778732     1.36900
C262        C  0.09303656  0.66691412  0.91277780     0.79100
O263        O  0.05135833  0.69133552  0.93004913    -0.59400
O264        O  0.03247274  0.66346275  0.92332849    -0.50300
C265        C  0.03080998  0.70686157  0.88014710     0.71700
O266        O  0.05092251  0.70927343  0.88307427    -0.45100
C267        C  0.05703300  0.64852940  0.86524681     0.76500
O268        O  0.08957610  0.68442390  0.90280269    -0.57000
O269        O  0.04481156  0.64543806  0.88130504    -0.47100
O270        O  0.07698400  0.65465437  0.91470748    -0.53400
C271        C  0.03800095  0.67761998  0.93692476     0.86600
O272        O  0.02355182  0.68897186  0.88632220    -0.55300
O273        O  0.06704172  0.66616327  0.86561208    -0.58600
In274      In  0.98843920  0.67298972  0.06215037     1.36900
C275        C  0.95108121  0.66089063  0.04478155     0.79100
O276        O  0.99441970  0.69017260  0.03130207    -0.59400
O277        O  0.01161127  0.66085356  0.03741085    -0.50300
C278        C  0.01107316  0.70235101  0.08375564     0.71700
O279        O  0.99200342  0.70639229  0.07731496    -0.45100
C280        C  0.98390162  0.64456689  0.09341753     0.76500
O281        O  0.95261150  0.67830565  0.05545492    -0.57000
O282        O  0.99824184  0.64262212  0.07897664    -0.47100
O283        O  0.96854304  0.65060705  0.04295981    -0.53400
C284        C  0.00740595  0.67603966  0.02446320     0.86600
O285        O  0.01790010  0.68393546  0.07864734    -0.55300
O286        O  0.97294285  0.66168468  0.09233662    -0.58600
In287      In  0.10383358  0.77948924  0.14732206     1.36900
C288        C  0.11673680  0.81658924  0.16307168     0.79100
O289        O  0.08736683  0.77947459  0.17908341    -0.59400
O290        O  0.11239687  0.75632131  0.17392132    -0.50300
C291        C  0.07228728  0.75772017  0.12805235     0.71700
O292        O  0.07034090  0.77759095  0.13232638    -0.45100
C293        C  0.13286881  0.78324287  0.11632552     0.76500
O294        O  0.09915393  0.81508407  0.15255207    -0.57000
O295        O  0.13499308  0.76976344  0.13156105    -0.47100
O296        O  0.12716900  0.79924439  0.16510390    -0.53400
C297        C  0.09889577  0.76461209  0.18689507     0.86600
O298        O  0.09028306  0.74973851  0.13335799    -0.55300
O299        O  0.11507950  0.79319042  0.11624897    -0.58600
In300      In  0.09667205  0.72380316  0.31550207     1.36900
C301        C  0.11079713  0.68695548  0.29930222     0.79100
O302        O  0.08151348  0.72546713  0.28314186    -0.59400
O303        O  0.10683231  0.74771003  0.29035360    -0.50300
C304        C  0.06471856  0.74624499  0.33332249     0.71700
O305        O  0.06248151  0.72649110  0.32860040    -0.45100
C306        C  0.12436262  0.71992522  0.34778589     0.76500
O307        O  0.09281143  0.68806678  0.30920956    -0.57000
O308        O  0.12677734  0.73351293  0.33272324    -0.47100
O309        O  0.12081478  0.70455789  0.29788145    -0.53400
C310        C  0.09381066  0.74024580  0.27647783     0.86600
O311        O  0.08320435  0.75370579  0.32926586    -0.55300
O312        O  0.10681726  0.70961055  0.34705778    -0.58600
In313      In  0.34664360  0.58525336  0.51323843     1.36900
C314        C  0.35427251  0.57003954  0.55182701     0.79100
O315        O  0.33059908  0.55364439  0.50731834    -0.59400
O316        O  0.36116130  0.55963890  0.49276417    -0.50300
C317        C  0.31805951  0.60559995  0.48875843     0.71700
O318        O  0.31347074  0.59954352  0.50774056    -0.45100
C319        C  0.37656088  0.61501487  0.51837109     0.76500
O320        O  0.33778716  0.58174851  0.54839904    -0.57000
O321        O  0.37809766  0.60008226  0.50462144    -0.47100
O322        O  0.36579425  0.56605004  0.53562979    -0.53400
C323        C  0.34615931  0.54632587  0.49633531     0.86600
O324        O  0.33702397  0.60115141  0.48290022    -0.55300
O325        O  0.35893086  0.61537729  0.52856240    -0.58600
In326      In  0.35281167  0.42132991  0.44599516     1.36900
C327        C  0.36165806  0.44029234  0.40892000     0.79100
O328        O  0.33518714  0.45100818  0.45542982    -0.59400
O329        O  0.36710320  0.44645559  0.46758896    -0.50300
C330        C  0.32301283  0.40121986  0.46913410     0.71700
O331        O  0.31917851  0.40728156  0.44995018    -0.45100
C332        C  0.38039145  0.38916158  0.44055780     0.76500
O333        O  0.34461119  0.42914892  0.41108901    -0.57000
O334        O  0.38293596  0.40331071  0.45500860    -0.47100
O335        O  0.37340127  0.44132619  0.42545735    -0.53400
C336        C  0.35065649  0.45854589  0.46631944     0.86600
O337        O  0.34190792  0.40518962  0.47556596    -0.55300
O338        O  0.36338061  0.39128036  0.42953672    -0.58600
In339      In  0.19312989  0.91774996  0.50876250     1.36900
C340        C  0.18504813  0.93631331  0.54611873     0.79100
O341        O  0.21179385  0.94765522  0.50125802    -0.59400
O342        O  0.18052200  0.94384526  0.48745198    -0.50300
C343        C  0.22179405  0.89429868  0.48738539     0.71700
O344        O  0.22572945  0.90156222  0.50606599    -0.45100
C345        C  0.16186237  0.88927224  0.51427775     0.76500
O346        O  0.20120243  0.92384474  0.54402888    -0.57000
O347        O  0.16122662  0.90342341  0.49959322    -0.47100
O348        O  0.17380781  0.93867544  0.52940323    -0.53400
C349        C  0.19644612  0.95612189  0.49082741     0.86600
O350        O  0.20347676  0.89934393  0.48003148    -0.55300
O351        O  0.17911317  0.88909550  0.52511585    -0.58600
In352      In  0.19016378  0.08538392  0.45251337     1.36900
C353        C  0.18020848  0.06806865  0.41509817     0.79100
O354        O  0.20882387  0.05533492  0.45890596    -0.59400
O355        O  0.17814788  0.05902228  0.47403605    -0.50300
C356        C  0.21866568  0.10770078  0.47525642     0.71700
O357        O  0.22272257  0.10187321  0.45605802    -0.45100
C358        C  0.16080894  0.11590176  0.44749770     0.76500
O359        O  0.19725983  0.07923234  0.41722037    -0.57000
O360        O  0.15891834  0.10114391  0.46148297    -0.47100
O361        O  0.16902209  0.06600850  0.43192059    -0.53400
C362        C  0.19420193  0.04690205  0.47033761     0.86600
O363        O  0.20049105  0.10169507  0.48218130    -0.55300
O364        O  0.17829282  0.11546028  0.43704650    -0.58600
In365      In  0.30667462  0.83389105  0.40042517     1.36900
C366        C  0.34516010  0.81694529  0.39379499     0.79100
O367        O  0.29938769  0.80334384  0.41748470    -0.59400
O368        O  0.28697451  0.80772803  0.38567587    -0.50300
C369        C  0.28171955  0.85137664  0.43030126     0.71700
O370        O  0.30160853  0.84785105  0.43370630    -0.45100
C371        C  0.31007269  0.86506933  0.37130764     0.76500
O372        O  0.34180058  0.82910013  0.40989592    -0.57000
O373        O  0.29701659  0.84957859  0.36945800    -0.47100
O374        O  0.32907530  0.81397936  0.38179500    -0.53400
C375        C  0.28903226  0.79543598  0.40184635     0.86600
O376        O  0.27536588  0.84655039  0.41161977    -0.55300
O377        O  0.32054568  0.86513213  0.38876159    -0.58600
In378      In  0.23554919  0.67147007  0.40254417     1.36900
C379        C  0.19829192  0.69002770  0.39388802     0.79100
O380        O  0.24515278  0.70170575  0.41926056    -0.59400
O381        O  0.25739848  0.69582220  0.38768837    -0.50300
C382        C  0.25961871  0.65011986  0.43054813     0.71700
O383        O  0.24093545  0.65698585  0.43550447    -0.45100
C384        C  0.22895134  0.63956759  0.37538696     0.76500
O385        O  0.20089054  0.67952887  0.41130864    -0.57000
O386        O  0.24301737  0.65400571  0.37234608    -0.47100
O387        O  0.21456997  0.69077023  0.38175464    -0.53400
C388        C  0.25609503  0.70861253  0.40350566     0.86600
O389        O  0.26536218  0.65429406  0.41149930    -0.55300
O390        O  0.21858177  0.64126557  0.39284131    -0.58600
In391      In  0.29892723  0.17466404  0.56293102     1.36900
C392        C  0.33623877  0.19153388  0.57393887     0.79100
O393        O  0.29617541  0.20638403  0.54682739    -0.59400
O394        O  0.27572931  0.20013961  0.57391416    -0.50300
C395        C  0.27570065  0.15482777  0.53292440     0.71700
O396        O  0.29533778  0.15964229  0.52959505    -0.45100
C397        C  0.30345856  0.14351894  0.59178275     0.76500
O398        O  0.33416602  0.18143914  0.55621156    -0.57000
O399        O  0.28956179  0.15836543  0.59378885    -0.47100
O400        O  0.31940144  0.19246866  0.58533785    -0.53400
C401        C  0.28222033  0.21345337  0.55987030     0.86600
O402        O  0.26875047  0.16031751  0.55120820    -0.55300
O403        O  0.31403202  0.14414040  0.57437575    -0.58600
In404      In  0.23940224  0.34079832  0.55843626     1.36900
C405        C  0.20428943  0.32427222  0.57562946     0.79100
O406        O  0.24047369  0.30830643  0.54383725    -0.59400
O407        O  0.26292189  0.31590288  0.56905624    -0.50300
C408        C  0.26296098  0.35948340  0.52804899     0.71700
O409        O  0.24321244  0.35491515  0.52466119    -0.45100
C410        C  0.23498900  0.37389765  0.58412617     0.76500
O411        O  0.20418069  0.33191134  0.55650858    -0.57000
O412        O  0.24935470  0.35959811  0.58691146    -0.47100
O413        O  0.22217400  0.32558788  0.58533751    -0.53400
C414        C  0.25523170  0.30185399  0.55641385     0.86600
O415        O  0.26981161  0.35405892  0.54642497    -0.55300
O416        O  0.22394512  0.37192618  0.56705959    -0.58600
In417      In  0.48771496  0.67413638  0.56360863     1.36900
C418        C  0.45100401  0.66226004  0.54586815     0.79100
O419        O  0.49501317  0.69099877  0.53287243    -0.59400
O420        O  0.50946398  0.66025426  0.53828925    -0.50300
C421        C  0.50802282  0.70614319  0.58304663     0.71700
O422        O  0.48806542  0.70736968  0.57861643    -0.45100
C423        C  0.48413407  0.64690005  0.59613194     0.76500
O424        O  0.45255085  0.68017832  0.55557224    -0.57000
O425        O  0.49881682  0.64518087  0.58202720    -0.47100
O426        O  0.46805586  0.65123809  0.54540624    -0.53400
C427        C  0.50656386  0.67591364  0.52553091     0.86600
O428        O  0.51693838  0.68868346  0.57766918    -0.55300
O429        O  0.47231046  0.66330797  0.59408335    -0.58600
In430      In  0.55600768  0.67771960  0.39965474     1.36900
C431        C  0.59254159  0.66464975  0.41683129     0.79100
O432        O  0.54918041  0.69365559  0.43102609    -0.59400
O433        O  0.53298457  0.66428315  0.42380793    -0.50300
C434        C  0.53469356  0.70764405  0.37787531     0.71700
O435        O  0.55326666  0.71146805  0.38564898    -0.45100
C436        C  0.56167711  0.64965110  0.36843597     0.76500
O437        O  0.59150231  0.68259838  0.40698201    -0.57000
O438        O  0.54665148  0.64796733  0.38218604    -0.47100
O439        O  0.57498085  0.65458333  0.41814033    -0.53400
C440        C  0.53677780  0.67886113  0.43751666     0.86600
O441        O  0.52756470  0.68908612  0.38189495    -0.55300
O442        O  0.57270151  0.66666059  0.36989678    -0.58600
In443      In  0.59242862  0.71479809  0.81080966     1.36900
C444        C  0.60127835  0.67689208  0.79397714     0.79100
O445        O  0.57497059  0.72352037  0.78041379    -0.59400
O446        O  0.60592378  0.73718544  0.78603286    -0.50300
C447        C  0.56293184  0.73616424  0.83304739     0.71700
O448        O  0.55865052  0.71794075  0.82495564    -0.45100
C449        C  0.62249113  0.71118867  0.84111011     0.76500
O450        O  0.58508929  0.67937632  0.80627413    -0.57000
O451        O  0.62341838  0.72501644  0.82616474    -0.47100
O452        O  0.61189803  0.69370594  0.79023594    -0.53400
C453        C  0.59010837  0.73512957  0.77330465     0.86600
O454        O  0.58173113  0.74287958  0.82931874    -0.55300
O455        O  0.60572107  0.69970406  0.84079901    -0.58600
In456      In  0.59136211  0.78978475  0.64902732     1.36900
C457        C  0.60213039  0.82701776  0.66637198     0.79100
O458        O  0.57438147  0.78100788  0.67954220    -0.59400
O459        O  0.60563323  0.76773983  0.67373448    -0.50300
C460        C  0.56198440  0.76701260  0.62815410     0.71700
O461        O  0.55723144  0.78516913  0.63627290    -0.45100
C462        C  0.61859657  0.79527227  0.61650036     0.76500
O463        O  0.58506004  0.82522748  0.65511999    -0.57000
O464        O  0.62138699  0.78111874  0.63096237    -0.47100
O465        O  0.61263226  0.80985160  0.66895653    -0.53400
C466        C  0.58981080  0.76962539  0.68655003     0.86600
O467        O  0.58119416  0.76100139  0.63127123    -0.55300
O468        O  0.60133375  0.80596149  0.61837088    -0.58600
In469      In  0.44594838  0.78757270  0.31327072     1.36900
C470        C  0.43524943  0.82406626  0.29473774     0.79100
O471        O  0.46276402  0.78021191  0.28223899    -0.59400
O472        O  0.43240491  0.76539305  0.28830112    -0.50300
C473        C  0.47682185  0.76539934  0.33268577     0.71700
O474        O  0.47962668  0.78499760  0.32766949    -0.45100
C475        C  0.41858404  0.79166054  0.34597795     0.76500
O476        O  0.45260441  0.82242717  0.30556089    -0.57000
O477        O  0.41649953  0.77748037  0.33149606    -0.47100
O478        O  0.42395747  0.80728239  0.29375675    -0.53400
C479        C  0.44776628  0.76839453  0.27514109     0.86600
O480        O  0.45843717  0.75807008  0.32804221    -0.55300
O481        O  0.43512873  0.80330303  0.34392295    -0.58600
In482      In  0.44097864  0.72380094  0.14704435     1.36900
C483        C  0.42982225  0.68693173  0.16496136     0.79100
O484        O  0.45980592  0.73008641  0.17718252    -0.59400
O485        O  0.42837154  0.74398658  0.17413878    -0.50300
C486        C  0.47047334  0.74740004  0.12686271     0.71700
O487        O  0.47364843  0.72765468  0.13118195    -0.45100
C488        C  0.41272052  0.71878337  0.11524061     0.76500
O489        O  0.44741850  0.68861195  0.15447458    -0.57000
O490        O  0.41080429  0.73320454  0.12956956    -0.47100
O491        O  0.41873136  0.70391008  0.16599842    -0.53400
C492        C  0.44479339  0.74077928  0.18594621     0.86600
O493        O  0.45227853  0.75448321  0.13277427    -0.55300
O494        O  0.42995672  0.70794445  0.11650253    -0.58600
In495      In  0.48939317  0.82990352  0.89720395     1.36900
C496        C  0.45259098  0.84222232  0.91482373     0.79100
O497        O  0.49608184  0.81283417  0.92840792    -0.59400
O498        O  0.51240419  0.84231477  0.92206136    -0.50300
C499        C  0.50880348  0.79755038  0.87708539     0.71700
O500        O  0.48888298  0.79670117  0.88169630    -0.45100
C501        C  0.48678613  0.85978047  0.86667308     0.76500
O502        O  0.45379494  0.82466298  0.90443097    -0.57000
O503        O  0.50095217  0.86021563  0.88135509    -0.47100
O504        O  0.47002128  0.85244748  0.91614747    -0.53400
C505        C  0.50863239  0.82728546  0.93528447     0.86600
O506        O  0.51791863  0.81492907  0.88221265    -0.55300
O507        O  0.47522965  0.84309335  0.86672618    -0.58600
In508      In  0.55707699  0.83093134  0.06195933     1.36900
C509        C  0.59412397  0.84009656  0.04310151     0.79100
O510        O  0.54981935  0.81306706  0.03166494    -0.59400
O511        O  0.53571689  0.84407312  0.03612654    -0.50300
C512        C  0.53183867  0.80358027  0.08322463     0.71700
O513        O  0.55082633  0.79840569  0.07736723    -0.45100
C514        C  0.56417096  0.85912487  0.09312796     0.76500
O515        O  0.59210593  0.82305242  0.05433866    -0.57000
O516        O  0.54979725  0.86175073  0.07880683    -0.47100
O517        O  0.57739537  0.85159685  0.04181471    -0.53400
C518        C  0.53858749  0.82813129  0.02370174     0.86600
O519        O  0.52637023  0.82249021  0.07817125    -0.55300
O520        O  0.57426333  0.84147548  0.09190110    -0.58600
In521      In  0.24255016  0.83481953  0.06016041     1.36900
C522        C  0.20614186  0.81575978  0.07063537     0.79100
O523        O  0.25040242  0.80461980  0.04255403    -0.59400
O524        O  0.26343050  0.80890937  0.07418704    -0.50300
C525        C  0.26548044  0.85526095  0.03036120     0.71700
O526        O  0.24622700  0.84921591  0.02679921    -0.45100
C527        C  0.23594845  0.86696485  0.08739071     0.76500
O528        O  0.20773710  0.82628680  0.05309312    -0.57000
O529        O  0.25100889  0.85333594  0.08986727    -0.47100
O530        O  0.22288037  0.81551047  0.08216789    -0.53400
C531        C  0.26081918  0.79657220  0.05813374     0.86600
O532        O  0.27242318  0.85068052  0.04896277    -0.55300
O533        O  0.22509048  0.86459745  0.07031452    -0.58600
In534      In  0.30204517  0.66786770  0.05861328     1.36900
C535        C  0.33922244  0.68591938  0.06968220     0.79100
O536        O  0.29696118  0.69922279  0.04222946    -0.59400
O537        O  0.28002395  0.69343478  0.07156788    -0.50300
C538        C  0.27902256  0.64931512  0.02736140     0.71700
O539        O  0.29903614  0.65311610  0.02509546    -0.45100
C540        C  0.30553413  0.63597750  0.08687392     0.76500
O541        O  0.33754731  0.67534083  0.05220818    -0.57000
O542        O  0.29194542  0.65108014  0.08887148    -0.47100
O543        O  0.32231123  0.68641517  0.08093496    -0.53400
C544        C  0.28466504  0.70665038  0.05669975     0.86600
O545        O  0.27150754  0.65489937  0.04541675    -0.55300
O546        O  0.31636483  0.63664117  0.06963799    -0.58600
In547      In  0.34835816  0.92173247  0.94409442     1.36900
C548        C  0.35440731  0.93802350  0.90507191     0.79100
O549        O  0.33115035  0.95214022  0.95229389    -0.59400
O550        O  0.36299201  0.94754418  0.96441004    -0.50300
C551        C  0.32074110  0.90062340  0.96939121     0.71700
O552        O  0.31561977  0.90632525  0.95040720    -0.45100
C553        C  0.37870597  0.89204304  0.93969142     0.76500
O554        O  0.33866864  0.92547330  0.90875777    -0.57000
O555        O  0.38036710  0.90771305  0.95255066    -0.47100
O556        O  0.36599086  0.94212621  0.92118643    -0.53400
C557        C  0.34687324  0.95994908  0.96264825     0.86600
O558        O  0.33963402  0.90581068  0.97478570    -0.55300
O559        O  0.36102250  0.89127988  0.92961937    -0.58600
In560      In  0.34722879  0.08487122  0.01340748     1.36900
C561        C  0.35912196  0.06565909  0.04940738     0.79100
O562        O  0.33065610  0.05422702  0.00551102    -0.59400
O563        O  0.36166240  0.06030909  0.99163666    -0.50300
C564        C  0.31738231  0.10486046  0.99006181     0.71700
O565        O  0.31397015  0.10011382  0.00971445    -0.45100
C566        C  0.37448063  0.11699805  0.01788801     0.76500
O567        O  0.34100353  0.07531331  0.04823429    -0.57000
O568        O  0.37654789  0.10261323  0.00362665    -0.47100
O569        O  0.37041239  0.06644022  0.03255889    -0.53400
C570        C  0.34614803  0.04731816  0.99414616     0.86600
O571        O  0.33568067  0.09921050  0.98315588    -0.55300
O572        O  0.35765053  0.11540417  0.02929727    -0.58600
In573      In  0.23611236  0.17128322  0.90235455     1.36900
C574        C  0.19875071  0.18837711  0.89100094     0.79100
O575        O  0.23939449  0.20283275  0.91863530    -0.59400
O576        O  0.26035823  0.19582960  0.89210033    -0.50300
C577        C  0.25912597  0.15031402  0.93190995     0.71700
O578        O  0.23963164  0.15562540  0.93546173    -0.45100
C579        C  0.23057981  0.14098263  0.87305658     0.76500
O580        O  0.20057921  0.17748516  0.90830228    -0.57000
O581        O  0.24426890  0.15593410  0.87075890    -0.47100
O582        O  0.21598451  0.19063631  0.88041714    -0.53400
C583        C  0.25389403  0.20940833  0.90590137     0.86600
O584        O  0.26611014  0.15598671  0.91368506    -0.55300
O585        O  0.22102870  0.14089345  0.89103333    -0.58600
In586      In  0.29997732  0.33545915  0.89891484     1.36900
C587        C  0.33791463  0.31898266  0.88881226     0.79100
O588        O  0.29685623  0.30428778  0.91604037    -0.59400
O589        O  0.27604089  0.31032725  0.88915961    -0.50300
C590        C  0.27710588  0.35726751  0.92768126     0.71700
O591        O  0.29643718  0.35164882  0.93157054    -0.45100
C592        C  0.30431382  0.36502774  0.86874882     0.76500
O593        O  0.33566126  0.33044883  0.90564186    -0.57000
O594        O  0.29142048  0.34936246  0.86676048    -0.47100
O595        O  0.32095927  0.31624074  0.87793162    -0.53400
C596        C  0.28250989  0.29723968  0.90343254     0.86600
O597        O  0.27009614  0.35136663  0.90955666    -0.55300
O598        O  0.31378793  0.36601142  0.88673325    -0.58600
In599      In  0.19351932  0.58588233  0.94157162     1.36900
C600        C  0.18336528  0.57086008  0.90305322     0.79100
O601        O  0.20959727  0.55447193  0.94885137    -0.59400
O602        O  0.17782457  0.55992242  0.96092475    -0.50300
C603        C  0.22248341  0.60580514  0.96620280     0.71700
O604        O  0.22725794  0.59932713  0.94736275    -0.45100
C605        C  0.16634411  0.61831421  0.93746605     0.76500
O606        O  0.20090129  0.58111171  0.90586899    -0.57000
O607        O  0.16371394  0.60361200  0.95136895    -0.47100
O608        O  0.17203784  0.56846076  0.91971773    -0.53400
C609        C  0.19342987  0.54693280  0.95874960     0.86600
O610        O  0.20344754  0.60146824  0.97195067    -0.55300
O611        O  0.18344193  0.61674187  0.92649427    -0.58600
In612      In  0.18802381  0.42097889  0.00843777     1.36900
C613        C  0.18012328  0.43806094  0.04624767     0.79100
O614        O  0.20483655  0.45178146  0.00169952    -0.59400
O615        O  0.17426534  0.44653078  0.98684213    -0.50300
C616        C  0.21790262  0.40154484  0.98498814     0.71700
O617        O  0.22123614  0.40623607  0.00460093    -0.45100
C618        C  0.16022372  0.38901975  0.01336553     0.76500
O619        O  0.19717088  0.42715347  0.04305631    -0.57000
O620        O  0.15723571  0.40415256  0.00000753    -0.47100
O621        O  0.16768748  0.43980556  0.03027787    -0.53400
C622        C  0.18998411  0.45920001  0.98985137     0.86600
O623        O  0.19946620  0.40674606  0.97807888    -0.55300
O624        O  0.17790089  0.38996777  0.02341542    -0.58600
In625      In  0.94110844  0.03473726  0.65102075     1.36900
C626        C  0.95897401  0.07157141  0.63984424     0.79100
O627        O  0.97248788  0.02900096  0.66736894    -0.59400
O628        O  0.96695634  0.01442572  0.63665001    -0.50300
C629        C  0.92130860  0.00917396  0.67909152     0.71700
O630        O  0.92655729  0.02833090  0.68399676    -0.45100
C631        C  0.90769560  0.04063809  0.62557477     0.76500
O632        O  0.94948417  0.06958348  0.65797343    -0.57000
O633        O  0.92210207  0.02663577  0.62175982    -0.47100
O634        O  0.95846236  0.05513123  0.62795935    -0.53400
C635        C  0.98012493  0.01818562  0.65184192     0.86600
O636        O  0.92687846  0.00350390  0.66035567    -0.55300
O637        O  0.91022392  0.05108671  0.64286852    -0.58600
In638      In  0.10752451  0.97221477  0.64776212     1.36900
C639        C  0.08843004  0.93484722  0.64127593     0.79100
O640        O  0.07792600  0.98263967  0.66505548    -0.59400
O641        O  0.08151691  0.99222571  0.63228307    -0.50300
C642        C  0.12822142  0.99498398  0.67721430     0.71700
O643        O  0.12157822  0.97610517  0.68116023    -0.45100
C644        C  0.13913040  0.96683724  0.61942436     0.76500
O645        O  0.10025212  0.93775634  0.65774741    -0.57000
O646        O  0.12480132  0.98124616  0.61747362    -0.47100
O647        O  0.08709997  0.95069935  0.62873232    -0.53400
C648        C  0.06961891  0.99180070  0.64887896     0.86600
O649        O  0.12415086  0.00168276  0.65844227    -0.55300
O650        O  0.13762238  0.95576942  0.63642286    -0.58600
In651      In  0.85191810  0.92125700  0.75748721     1.36900
C652        C  0.83480324  0.91091057  0.79506299     0.79100
O653        O  0.82151176  0.93879731  0.74946360    -0.59400
O654        O  0.82547079  0.90682567  0.73738280    -0.50300
C655        C  0.87311475  0.95011195  0.73401103     0.71700
O656        O  0.86692798  0.95411930  0.75312499    -0.45100
C657        C  0.88511262  0.89548547  0.76444095     0.76500
O658        O  0.84434520  0.92883190  0.79243878    -0.57000
O659        O  0.87133083  0.89180461  0.74974552    -0.47100
O660        O  0.83404829  0.89912172  0.77856051    -0.53400
C661        C  0.81331207  0.92312669  0.73941606     0.86600
O662        O  0.86796868  0.93164328  0.72724985    -0.55300
O663        O  0.88220785  0.91283216  0.77459917    -0.58600
In664      In  0.68452189  0.92785652  0.69570980     1.36900
C665        C  0.70023751  0.91815658  0.65759361     0.79100
O666        O  0.71676910  0.94298534  0.70085385    -0.59400
O667        O  0.71007454  0.91362982  0.71711869    -0.50300
C668        C  0.66516665  0.95789968  0.71887612     0.71700
O669        O  0.67067456  0.96149577  0.69950926    -0.45100
C670        C  0.65237873  0.89991635  0.69179086     0.76500
O671        O  0.68996828  0.93566440  0.66033230    -0.57000
O672        O  0.66744720  0.89757977  0.70539017    -0.47100
O673        O  0.70195992  0.90647939  0.67409226    -0.53400
C674        C  0.72383923  0.92802315  0.71274188     0.86600
O675        O  0.67018912  0.93951723  0.72584197    -0.55300
O676        O  0.65328581  0.91719990  0.68114728    -0.58600
In677      In  0.60246539  0.03969812  0.80705083     1.36900
C678        C  0.58566866  0.07787782  0.81353489     0.79100
O679        O  0.57171190  0.03116145  0.79053722    -0.59400
O680        O  0.57683447  0.01952947  0.82250294    -0.50300
C681        C  0.62234482  0.01603433  0.77782165     0.71700
O682        O  0.61689762  0.03531083  0.77395372    -0.45100
C683        C  0.63396974  0.04570176  0.83500488     0.76500
O684        O  0.59683093  0.07413834  0.79679866    -0.57000
O685        O  0.61946447  0.03166335  0.83780434    -0.47100
O686        O  0.58326253  0.06221044  0.82615183    -0.53400
C687        C  0.56419129  0.02104904  0.80652995     0.86600
O688        O  0.61782291  0.00950856  0.79654228    -0.55300
O689        O  0.63280147  0.05572925  0.81737146    -0.58600
In690      In  0.43825755  0.97055826  0.80817864     1.36900
C691        C  0.45712556  0.93456416  0.82075322     0.79100
O692        O  0.46919057  0.97794970  0.79160139    -0.59400
O693        O  0.46310200  0.99270539  0.82205436    -0.50300
C694        C  0.41782135  0.99442501  0.77907633     0.71700
O695        O  0.42440470  0.97557728  0.77446468    -0.45100
C696        C  0.40433510  0.96413687  0.83335979     0.76500
O697        O  0.44789214  0.93586685  0.80242955    -0.57000
O698        O  0.41810651  0.97881989  0.83677626    -0.47100
O699        O  0.45634702  0.95148526  0.83194227    -0.53400
C700        C  0.47623218  0.98977209  0.80663035     0.86600
O701        O  0.42229283  0.00046908  0.79797530    -0.55300
O702        O  0.40775081  0.95311693  0.81656261    -0.58600
In703      In  0.34962521  0.08432445  0.70185680     1.36900
C704        C  0.33057661  0.09456495  0.66522292     0.79100
O705        O  0.31901471  0.06703400  0.70893336    -0.59400
O706        O  0.32490032  0.09691462  0.72480652    -0.50300
C707        C  0.37135257  0.05443773  0.72375654     0.71700
O708        O  0.36526886  0.05128762  0.70447752    -0.45100
C709        C  0.37979211  0.11353118  0.69472654     0.76500
O710        O  0.34221963  0.07775718  0.66677622    -0.57000
O711        O  0.36589418  0.11545544  0.70959208    -0.47100
O712        O  0.32842520  0.10513672  0.68238674    -0.53400
C713        C  0.31180775  0.08171774  0.72107998     0.86600
O714        O  0.36649333  0.07273335  0.73113179    -0.55300
O715        O  0.37898670  0.09592187  0.68467237    -0.58600
In716      In  0.18269870  0.08592133  0.76154393     1.36900
C717        C  0.19955066  0.09578047  0.79912723     0.79100
O718        O  0.21363376  0.06852260  0.75659856    -0.59400
O719        O  0.20955984  0.09932382  0.74172435    -0.50300
C720        C  0.16578301  0.05540447  0.73722345     0.71700
O721        O  0.16870635  0.05264613  0.75729357    -0.45100
C722        C  0.15047347  0.11364130  0.76556821     0.76500
O723        O  0.18851426  0.07869757  0.79688398    -0.57000
O724        O  0.16541774  0.11617738  0.75185555    -0.47100
O725        O  0.20131993  0.10720185  0.78245205    -0.53400
C726        C  0.22194271  0.08351560  0.74561925     0.86600
O727        O  0.17078721  0.07385173  0.73035212    -0.55300
O728        O  0.15145686  0.09618376  0.77593381    -0.58600
In729      In  0.72852422  0.83784749  0.55550859     1.36900
C730        C  0.69075408  0.82134424  0.56580540     0.79100
O731        O  0.73430133  0.80583515  0.54042665    -0.59400
O732        O  0.75067584  0.81315659  0.56968505    -0.50300
C733        C  0.75217683  0.85639616  0.52498195     0.71700
O734        O  0.73234954  0.85231105  0.52185633    -0.45100
C735        C  0.72487132  0.86959924  0.58371340     0.76500
O736        O  0.69312249  0.83183898  0.54836138    -0.57000
O737        O  0.73843364  0.85449621  0.58566719    -0.47100
O738        O  0.70751120  0.81942363  0.57712103    -0.53400
C739        C  0.74668236  0.79930133  0.55528722     0.86600
O740        O  0.75901069  0.85114246  0.54337611    -0.55300
O741        O  0.71391871  0.86895644  0.56657148    -0.58600
In742      In  0.79925250  0.67473573  0.55964847     1.36900
C743        C  0.83703756  0.69217955  0.56914221     0.79100
O744        O  0.78861522  0.70452670  0.54256390    -0.59400
O745        O  0.77848744  0.69996028  0.57513968    -0.50300
C746        C  0.77810752  0.65475281  0.52819865     0.71700
O747        O  0.79739083  0.66111782  0.52567752    -0.45100
C748        C  0.80331476  0.64307911  0.58806354     0.76500
O749        O  0.83478928  0.68046401  0.55254456    -0.57000
O750        O  0.78865201  0.65721362  0.58937124    -0.47100
O751        O  0.82000642  0.69536429  0.57968288    -0.53400
C752        C  0.77880168  0.71206167  0.55873730     0.86600
O753        O  0.77039164  0.65843611  0.54665710    -0.55300
O754        O  0.81505645  0.64466374  0.57154793    -0.58600
In755      In  0.69744213  0.58415275  0.44433203     1.36900
C756        C  0.69188846  0.56597508  0.40625969     0.79100
O757        O  0.71509897  0.55471069  0.45557820    -0.59400
O758        O  0.68238241  0.55918970  0.46519451    -0.50300
C759        C  0.72490904  0.60756589  0.46744465     0.71700
O760        O  0.73020154  0.60020260  0.44911420    -0.45100
C761        C  0.66631639  0.61312647  0.43919972     0.76500
O762        O  0.70707527  0.57931631  0.40929320    -0.57000
O763        O  0.66533463  0.59813110  0.45292017    -0.47100
O764        O  0.68073813  0.56183676  0.42264103    -0.53400
C765        C  0.69879080  0.54707635  0.46515190     0.86600
O766        O  0.70616355  0.60247551  0.47339595    -0.55300
O767        O  0.68357152  0.61345421  0.42840780    -0.58600
In768      In  0.69515811  0.42101349  0.51529676     1.36900
C769        C  0.68203860  0.43701448  0.55254938     0.79100
O770        O  0.71209091  0.45226920  0.51006986    -0.59400
O771        O  0.68174847  0.44723121  0.49459991    -0.50300
C772        C  0.72466679  0.40226569  0.49029915     0.71700
O773        O  0.72875458  0.40691693  0.50985744    -0.45100
C774        C  0.66832457  0.38832559  0.51955181     0.76500
O775        O  0.70011718  0.42728164  0.55111442    -0.57000
O776        O  0.66581006  0.40287171  0.50542544    -0.47100
O777        O  0.67160833  0.43840911  0.53514650    -0.53400
C778        C  0.69725574  0.45998565  0.49831462     0.86600
O779        O  0.70579723  0.40713772  0.48432780    -0.55300
O780        O  0.68545868  0.38993631  0.53051320    -0.58600
In781      In  0.84362661  0.92020864  0.44738493     1.36900
C782        C  0.85324926  0.93957145  0.41087314     0.79100
O783        O  0.82872844  0.95076142  0.45824633    -0.59400
O784        O  0.86031622  0.94314888  0.46967260    -0.50300
C785        C  0.81245851  0.90031860  0.46864757     0.71700
O786        O  0.80901239  0.90829789  0.45012343    -0.45100
C787        C  0.86949665  0.88672154  0.44162993     0.76500
O788        O  0.83577088  0.92910267  0.41282139    -0.57000
O789        O  0.87215338  0.90023660  0.45662963    -0.47100
O790        O  0.86505590  0.93981056  0.42737858    -0.53400
C791        C  0.84503517  0.95667359  0.46892559     0.86600
O792        O  0.83130235  0.90321392  0.47571735    -0.55300
O793        O  0.85323491  0.89025347  0.42988336    -0.58600
In794      In  0.85180724  0.08287304  0.51595509     1.36900
C795        C  0.85771913  0.06653450  0.55451102     0.79100
O796        O  0.83357198  0.05310174  0.50852277    -0.59400
O797        O  0.86548569  0.05624210  0.49607657    -0.50300
C798        C  0.82323436  0.10369268  0.49228820     0.71700
O799        O  0.81931946  0.09870739  0.51171052    -0.45100
C800        C  0.88258765  0.11215184  0.51947654     0.76500
O801        O  0.84222679  0.07945038  0.55100362    -0.57000
O802        O  0.88355433  0.09671215  0.50626831    -0.47100
O803        O  0.86930104  0.06221630  0.53844953    -0.53400
C804        C  0.84900503  0.04446530  0.49838236     0.86600
O805        O  0.84150087  0.09781309  0.48554273    -0.55300
O806        O  0.86527874  0.11305069  0.53014438    -0.58600
In807      In  0.74104094  0.17034619  0.40710190     1.36900
C808        C  0.70430981  0.18829341  0.39513279     0.79100
O809        O  0.74839932  0.20097477  0.42440538    -0.59400
O810        O  0.76305216  0.19514320  0.39376533    -0.50300
C811        C  0.76509074  0.14984454  0.43547694     0.71700
O812        O  0.74592883  0.15566111  0.44003838    -0.45100
C813        C  0.73553807  0.13783328  0.38028858     0.76500
O814        O  0.70561885  0.17819502  0.41297152    -0.57000
O815        O  0.74949149  0.15240058  0.37721726    -0.47100
O816        O  0.72161918  0.18910435  0.38449911    -0.53400
C817        C  0.75999529  0.20813085  0.40920395     0.86600
O818        O  0.77126936  0.15477951  0.41673977    -0.55300
O819        O  0.72504303  0.13960768  0.39767739    -0.58600
In820      In  0.80361202  0.33551752  0.40062276     1.36900
C821        C  0.84202985  0.31801803  0.39356391     0.79100
O822        O  0.79599972  0.30633263  0.42014674    -0.59400
O823        O  0.78292119  0.30877896  0.38846071    -0.50300
C824        C  0.78124260  0.35794758  0.42969360     0.71700
O825        O  0.80046451  0.35183191  0.43322118    -0.45100
C826        C  0.80702369  0.36419875  0.36894085     0.76500
O827        O  0.83913911  0.33126618  0.40886772    -0.57000
O828        O  0.79332530  0.34912694  0.36863262    -0.47100
O829        O  0.82539328  0.31388570  0.38272252    -0.53400
C830        C  0.78556399  0.29735502  0.40516798     0.86600
O831        O  0.77400780  0.35254252  0.41147960    -0.55300
O832        O  0.81827518  0.36489870  0.38588208    -0.58600
In833      In  0.85219514  0.08130317  0.19760736     1.36900
C834        C  0.83396424  0.09314433  0.16101383     0.79100
O835        O  0.82095373  0.06409529  0.20132997    -0.59400
O836        O  0.82778698  0.09035766  0.22252224    -0.50300
C837        C  0.87355167  0.05222213  0.22079626     0.71700
O838        O  0.86857755  0.04853906  0.20125304    -0.45100
C839        C  0.88172403  0.11154349  0.19299448     0.76500
O840        O  0.84525983  0.07602070  0.16203295    -0.57000
O841        O  0.86636432  0.11302544  0.20638930    -0.47100
O842        O  0.83217319  0.10326806  0.17852444    -0.53400
C843        C  0.81451237  0.07613263  0.21644321     0.86600
O844        O  0.86803379  0.07057959  0.22741970    -0.55300
O845        O  0.88259326  0.09385048  0.18301196    -0.58600
In846      In  0.69119858  0.07535712  0.27164979     1.36900
C847        C  0.70856863  0.08648274  0.30887489     0.79100
O848        O  0.72334361  0.05975887  0.26721655    -0.59400
O849        O  0.71486035  0.08608632  0.24667823    -0.50300
C850        C  0.67029703  0.04566357  0.24892792     0.71700
O851        O  0.67675708  0.04167236  0.26796459    -0.45100
C852        C  0.66034972  0.10473670  0.27627880     0.76500
O853        O  0.69694066  0.06969735  0.30736796    -0.57000
O854        O  0.67559225  0.10669035  0.26281878    -0.47100
O855        O  0.71129403  0.09663086  0.29148899    -0.53400
C856        C  0.72898025  0.07244442  0.25231287     0.86600
O857        O  0.67494977  0.06420890  0.24222891    -0.55300
O858        O  0.66048181  0.08721629  0.28659049    -0.58600
In859      In  0.60716760  0.96969751  0.15514563     1.36900
C860        C  0.59169998  0.93178239  0.14311218     0.79100
O861        O  0.57424420  0.97203288  0.16956249    -0.59400
O862        O  0.58277829  0.99442505  0.14489617    -0.50300
C863        C  0.62608562  0.99055184  0.18765388     0.71700
O864        O  0.62222549  0.97055754  0.18886305    -0.45100
C865        C  0.63748148  0.96916483  0.12488282     0.76500
O866        O  0.60305593  0.93354917  0.16008734    -0.57000
O867        O  0.62098637  0.98110923  0.12384896    -0.47100
O868        O  0.58853839  0.94912631  0.13312579    -0.53400
C869        C  0.56836225  0.98728556  0.15742609     0.86600
O870        O  0.62040475  0.99902568  0.17009991    -0.55300
O871        O  0.63907088  0.95862249  0.14219262    -0.58600
In872      In  0.44087852  0.03202874  0.14853092     1.36900
C873        C  0.45687226  0.06867481  0.13544483     0.79100
O874        O  0.47241541  0.03068573  0.16569137    -0.59400
O875        O  0.46722871  0.00944199  0.13907035    -0.50300
C876        C  0.42043665  0.00888888  0.17769086     0.71700
O877        O  0.42449119  0.02865194  0.18094807    -0.45100
C878        C  0.40893595  0.03529164  0.12063028     0.76500
O879        O  0.44746319  0.06723240  0.15364601    -0.57000
O880        O  0.42450333  0.02225756  0.11805371    -0.47100
O881        O  0.45753912  0.05155033  0.12455069    -0.53400
C882        C  0.48011981  0.01648638  0.15328275     0.86600
O883        O  0.42742292  0.00161323  0.16003823    -0.55300
O884        O  0.40938676  0.04569315  0.13812055    -0.58600
In885      In  0.18851084  0.92404491  0.19748052     1.36900
C886        C  0.20595364  0.91537800  0.15962842     0.79100
O887        O  0.21890215  0.94219319  0.20359876    -0.59400
O888        O  0.21505082  0.91096366  0.21758226    -0.50300
C889        C  0.16830289  0.95220847  0.22278286     0.71700
O890        O  0.17248847  0.95651430  0.20319697    -0.45100
C891        C  0.15969692  0.89318920  0.19257342     0.76500
O892        O  0.19363612  0.93164188  0.16188909    -0.57000
O893        O  0.17451589  0.89235760  0.20658955    -0.47100
O894        O  0.20898677  0.90450772  0.17646908    -0.53400
C895        C  0.22723258  0.92695402  0.21428303     0.86600
O896        O  0.17406161  0.93362759  0.22861337    -0.55300
O897        O  0.15863340  0.91076618  0.18238537    -0.58600
In898      In  0.35435793  0.92286136  0.25940620     1.36900
C899        C  0.33729990  0.91190192  0.29669650     0.79100
O900        O  0.32369141  0.94051873  0.25372578    -0.59400
O901        O  0.32877768  0.91053608  0.23767418    -0.50300
C902        C  0.37433467  0.95172985  0.23553135     0.71700
O903        O  0.36941265  0.95566582  0.25502203    -0.45100
C904        C  0.38642790  0.89545131  0.26416978     0.76500
O905        O  0.34748652  0.92953915  0.29466456    -0.57000
O906        O  0.37149743  0.89241436  0.25053699    -0.47100
O907        O  0.33619830  0.90064446  0.27984737    -0.53400
C908        C  0.31611707  0.92610706  0.24151102     0.86600
O909        O  0.36878368  0.93336495  0.22894808    -0.55300
O910        O  0.38536267  0.91311527  0.27415164    -0.58600
In911      In  0.93461827  0.97067303  0.31197445     1.36900
C912        C  0.94943634  0.93324729  0.32538930     0.79100
O913        O  0.96720983  0.97424205  0.29756525    -0.59400
O914        O  0.96052703  0.99141101  0.32646657    -0.50300
C915        C  0.91622918  0.99400649  0.28102244     0.71700
O916        O  0.92143005  0.97448794  0.27783297    -0.45100
C917        C  0.90148550  0.96793710  0.33845794     0.76500
O918        O  0.94130082  0.93506814  0.30660902    -0.57000
O919        O  0.91634434  0.98172268  0.34070648    -0.47100
O920        O  0.94933737  0.95023350  0.33642651    -0.53400
C921        C  0.97442881  0.98606809  0.31247845     0.86600
O922        O  0.92102739  0.00095904  0.29950365    -0.55300
O923        O  0.90300424  0.95651128  0.32167693    -0.58600
In924      In  0.10226149  0.03054695  0.31347505     1.36900
C925        C  0.08403554  0.06847270  0.31929206     0.79100
O926        O  0.07215087  0.01884747  0.29775478    -0.59400
O927        O  0.07656061  0.01193600  0.33111776    -0.50300
C928        C  0.12364755  0.00785617  0.28386982     0.71700
O929        O  0.11624895  0.02647114  0.27989531    -0.45100
C930        C  0.13358682  0.03768798  0.34167121     0.76500
O931        O  0.09534805  0.06476615  0.30262420    -0.57000
O932        O  0.12046501  0.02221312  0.34350190    -0.47100
O933        O  0.08211429  0.05287799  0.33204181    -0.53400
C934        C  0.06424978  0.01116780  0.31487012     0.86600
O935        O  0.11971608  0.00122398  0.30270196    -0.55300
O936        O  0.13127005  0.04864760  0.32471388    -0.58600
In937      In  0.55371746  0.17466752  0.89518704     1.36900
C938        C  0.59033189  0.16425636  0.91395748     0.79100
O939        O  0.54514854  0.19106840  0.92558721    -0.59400
O940        O  0.53412815  0.15875797  0.92069294    -0.50300
C941        C  0.52894608  0.20409652  0.87731496     0.71700
O942        O  0.54876437  0.20774233  0.88116883    -0.45100
C943        C  0.55855600  0.14985151  0.86117730     0.76500
O944        O  0.58822710  0.18244634  0.90474999    -0.57000
O945        O  0.54440772  0.14634594  0.87548480    -0.47100
O946        O  0.57416771  0.15207570  0.91263106    -0.53400
C947        C  0.53547599  0.17483956  0.93315287     0.86600
O948        O  0.52244333  0.18563768  0.88272748    -0.55300
O949        O  0.56960089  0.16667771  0.86400198    -0.58600
In950      In  0.48660020  0.17391701  0.05912215     1.36900
C951        C  0.44860574  0.16460468  0.04279921     0.79100
O952        O  0.49257685  0.19010956  0.02774573    -0.59400
O953        O  0.50950913  0.16106138  0.03444167    -0.50300
C954        C  0.50805366  0.20393871  0.08052672     0.71700
O955        O  0.48872686  0.20707889  0.07456231    -0.45100
C956        C  0.48346084  0.14370957  0.08893805     0.76500
O957        O  0.45121385  0.18147724  0.05399818    -0.57000
O958        O  0.49689492  0.14276000  0.07363511    -0.47100
O959        O  0.46528551  0.15336780  0.04008741    -0.53400
C960        C  0.50534880  0.17576453  0.02096499     0.86600
O961        O  0.51576846  0.18605292  0.07490293    -0.55300
O962        O  0.47260930  0.16088047  0.08961321    -0.58600
In963      In  0.44041333  0.28269804  0.81113990     1.36900
C964        C  0.42834431  0.31852153  0.79249069     0.79100
O965        O  0.45823189  0.27964511  0.78041182    -0.59400
O966        O  0.43135028  0.25864669  0.78596024    -0.50300
C967        C  0.46961702  0.26043724  0.83251381     0.71700
O968        O  0.47324390  0.27963438  0.82653047    -0.45100
C969        C  0.41192683  0.28933383  0.84209017     0.76500
O970        O  0.44585374  0.31751278  0.80321934    -0.57000
O971        O  0.40952330  0.27489818  0.82784120    -0.47100
O972        O  0.41763800  0.30127962  0.79157706    -0.53400
C973        C  0.44587901  0.26521826  0.77314022     0.86600
O974        O  0.45134579  0.25315382  0.82728621    -0.55300
O975        O  0.42962577  0.29937068  0.84107434    -0.58600
In976      In  0.44408690  0.22109901  0.64612662     1.36900
C977        C  0.42927581  0.18525577  0.66294838     0.79100
O978        O  0.46045135  0.22234183  0.67803729    -0.59400
O979        O  0.43575970  0.24542241  0.67117929    -0.50300
C980        C  0.47449819  0.24177072  0.62457885     0.71700
O981        O  0.47737162  0.22249401  0.63077060    -0.45100
C982        C  0.41358265  0.21883814  0.61667533     0.76500
O983        O  0.44695193  0.18532098  0.65242727    -0.57000
O984        O  0.41337384  0.23253710  0.63176789    -0.47100
O985        O  0.41995721  0.20323300  0.66436752    -0.53400
C986        C  0.44875886  0.23756681  0.68484399     0.86600
O987        O  0.45661268  0.24988161  0.62988241    -0.55300
O988        O  0.43051319  0.20747956  0.61568637    -0.58600
In989      In  0.55708532  0.32927795  0.56268469     1.36900
C990        C  0.59515998  0.34003207  0.54720191     0.79100
O991        O  0.55168762  0.31276796  0.53134687    -0.59400
O992        O  0.53740261  0.34368460  0.53616475    -0.50300
C993        C  0.53326415  0.29871801  0.58025523     0.71700
O994        O  0.55321885  0.29584415  0.57653579    -0.45100
C995        C  0.55941695  0.35566514  0.59589575     0.76500
O996        O  0.59269338  0.32243259  0.55734873    -0.57000
O997        O  0.54597921  0.35834746  0.58072947    -0.47100
O998        O  0.57844855  0.35148433  0.54556115    -0.53400
C999        C  0.54085773  0.32812409  0.52343423     0.86600
O1000       O  0.52612686  0.31699858  0.57497510    -0.55300
O1001       O  0.57080179  0.33888493  0.59435495    -0.58600
In1002     In  0.49045818  0.33102808  0.39809621     1.36900
C1003       C  0.45243206  0.33762304  0.41636477     0.79100
O1004       O  0.50070200  0.31297854  0.42750535    -0.59400
O1005       O  0.51265146  0.34475347  0.42279735    -0.50300
C1006       C  0.51308503  0.30268998  0.37505409     0.71700
O1007       O  0.49459894  0.29805435  0.38251771    -0.45100
C1008       C  0.48443998  0.36268325  0.36993984     0.76500
O1009       O  0.45494073  0.32316420  0.40214048    -0.57000
O1010       O  0.49894905  0.36323568  0.38427841    -0.47100
O1011       O  0.46943251  0.34713261  0.42187749    -0.53400
C1012       C  0.51150853  0.32849331  0.43502753     0.86600
O1013       O  0.51908375  0.32160794  0.37907883    -0.55300
O1014       O  0.47371886  0.34546984  0.36961267    -0.58600
In1015     In  0.59386652  0.28475621  0.14816448     1.36900
C1016       C  0.60347161  0.32215659  0.16570476     0.79100
O1017       O  0.57777962  0.27622843  0.17936438    -0.59400
O1018       O  0.60860015  0.26262091  0.17280963    -0.50300
C1019       C  0.56387304  0.26182273  0.12815208     0.71700
O1020       O  0.55990782  0.28085635  0.13443242    -0.45100
C1021       C  0.62083556  0.29027962  0.11518232     0.76500
O1022       O  0.58613595  0.31974506  0.15500734    -0.57000
O1023       O  0.62361449  0.27588566  0.12939281    -0.47100
O1024       O  0.61498977  0.30553182  0.16745218    -0.53400
C1025       C  0.59319081  0.26465952  0.18610154     0.86600
O1026       O  0.58276112  0.25540737  0.13218264    -0.55300
O1027       O  0.60387943  0.30128072  0.11767284    -0.58600
In1028     In  0.60110012  0.21787962  0.31376965     1.36900
C1029       C  0.61084671  0.17928581  0.29903585     0.79100
O1030       O  0.58231470  0.22298401  0.28329805    -0.59400
O1031       O  0.61355224  0.23721288  0.28598644    -0.50300
C1032       C  0.57191039  0.24319670  0.33239510     0.71700
O1033       O  0.56782387  0.22368658  0.32793380    -0.45100
C1034       C  0.63066510  0.21441564  0.34479516     0.76500
O1035       O  0.59441987  0.18205590  0.31104305    -0.57000
O1036       O  0.63260892  0.22712656  0.32892283    -0.47100
O1037       O  0.62113908  0.19612743  0.29450190    -0.53400
C1038       C  0.59709486  0.23378211  0.27433254     0.86600
O1039       O  0.59082351  0.24905355  0.32760706    -0.55300
O1040       O  0.61285726  0.20456139  0.34538238    -0.58600
In1041     In  0.94404994  0.29006413  0.31386170     1.36900
C1042       C  0.93263012  0.32678278  0.29571705     0.79100
O1043       O  0.95979349  0.28306443  0.28239686    -0.59400
O1044       O  0.92849935  0.26995372  0.28844985    -0.50300
C1045       C  0.97537374  0.26590459  0.33062128     0.71700
O1046       O  0.97835264  0.28578950  0.32691150    -0.45100
C1047       C  0.91695018  0.29316452  0.34680916     0.76500
O1048       O  0.95025373  0.32534971  0.30620131    -0.57000
O1049       O  0.91522257  0.27898392  0.33230852    -0.47100
O1050       O  0.92148407  0.30990078  0.29528993    -0.53400
C1051       C  0.94387731  0.27254057  0.27524478     0.86600
O1052       O  0.95662481  0.25937277  0.32623148    -0.55300
O1053       O  0.93342249  0.30499186  0.34500651    -0.58600
In1054     In  0.93808273  0.22444893  0.14873323     1.36900
C1055       C  0.92728125  0.18713069  0.16582111     0.79100
O1056       O  0.95568674  0.23136797  0.17923709    -0.59400
O1057       O  0.92498204  0.24613150  0.17442975    -0.50300
C1058       C  0.96821860  0.24674398  0.12822783     0.71700
O1059       O  0.97128917  0.22724410  0.13351939    -0.45100
C1060       C  0.91015279  0.22039868  0.11678899     0.76500
O1061       O  0.94481092  0.18923519  0.15537680    -0.57000
O1062       O  0.90802405  0.23441262  0.13145309    -0.47100
O1063       O  0.91611492  0.20399628  0.16746703    -0.53400
C1064       C  0.94087708  0.24309325  0.18693467     0.86600
O1065       O  0.94996179  0.25411644  0.13344306    -0.55300
O1066       O  0.92718109  0.20929765  0.11811388    -0.58600
In1067     In  0.09221209  0.22187212  0.81502453     1.36900
C1068       C  0.10095503  0.18559466  0.79459569     0.79100
O1069       O  0.07545110  0.23274857  0.78504111    -0.59400
O1070       O  0.10647707  0.24567479  0.79211483    -0.50300
C1071       C  0.06205424  0.24267327  0.83758390     0.71700
O1072       O  0.05792324  0.22490445  0.82844606    -0.45100
C1073       C  0.12287668  0.21512167  0.84433438     0.76500
O1074       O  0.08524468  0.18679942  0.80772297    -0.57000
O1075       O  0.12350151  0.23035920  0.83082969    -0.47100
O1076       O  0.11099011  0.20289790  0.79169792    -0.53400
C1077       C  0.09101123  0.24433183  0.77885644     0.86600
O1078       O  0.08127161  0.24884587  0.83527384    -0.55300
O1079       O  0.10587926  0.20397306  0.84344409    -0.58600
In1080     In  0.09805206  0.28986028  0.65128131     1.36900
C1081       C  0.10537266  0.32919599  0.66617086     0.79100
O1082       O  0.07975162  0.28481426  0.68186695    -0.59400
O1083       O  0.11068228  0.27007941  0.67862615    -0.50300
C1084       C  0.06998364  0.26454177  0.63016780     0.71700
O1085       O  0.06538925  0.28388368  0.63487460    -0.45100
C1086       C  0.13005822  0.29372033  0.62313992     0.76500
O1087       O  0.08963971  0.32554766  0.65352163    -0.57000
O1088       O  0.13099507  0.28105556  0.63909539    -0.47100
O1089       O  0.11631269  0.31287958  0.67114376    -0.53400
C1090       C  0.09460544  0.27390785  0.69063177     0.86600
O1091       O  0.08853933  0.25882598  0.63632078    -0.55300
O1092       O  0.11206326  0.30299829  0.62079548    -0.58600
In1093     In  0.97898514  0.33343884  0.89636748     1.36900
C1094       C  0.93969130  0.33981850  0.91182256     0.79100
O1095       O  0.98654014  0.31649628  0.92727081    -0.59400
O1096       O  0.99853837  0.34820153  0.92311608    -0.50300
C1097       C  0.00238246  0.30237920  0.87812408     0.71700
O1098       O  0.98253503  0.29973498  0.88226811    -0.45100
C1099       C  0.97707728  0.36347526  0.86556541     0.76500
O1100       O  0.94350920  0.32454387  0.89883620    -0.57000
O1101       O  0.99002994  0.36444012  0.88128144    -0.47100
O1102       O  0.95580326  0.35102827  0.91674867    -0.53400
C1103       C  0.99660832  0.33211535  0.93549526     0.86600
O1104       O  0.00940130  0.32082305  0.88272369    -0.55300
O1105       O  0.96582716  0.34661174  0.86521927    -0.58600
In1106     In  0.05095420  0.33066503  0.05976416     1.36900
C1107       C  0.08820361  0.33918489  0.04095733     0.79100
O1108       O  0.04047318  0.31441872  0.02940537    -0.59400
O1109       O  0.02815352  0.34574885  0.03617990    -0.50300
C1110       C  0.02783556  0.30236743  0.08206027     0.71700
O1111       O  0.04578401  0.29711379  0.07365483    -0.45100
C1112       C  0.05888256  0.35931053  0.09022145     0.76500
O1113       O  0.08614351  0.32261792  0.05281123    -0.57000
O1114       O  0.04430336  0.36189375  0.07614078    -0.47100
O1115       O  0.07129526  0.35014949  0.03854320    -0.53400
C1116       C  0.02925475  0.33021936  0.02304446     0.86600
O1117       O  0.02244595  0.32166522  0.07884594    -0.55300
O1118       O  0.06848782  0.34140289  0.08931536    -0.58600
In1119     In  0.99464366  0.17282348  0.56156344     1.36900
C1120       C  0.95779372  0.15939353  0.54532807     0.79100
O1121       O  0.99544360  0.18873547  0.52939012    -0.59400
O1122       O  0.01767493  0.16303029  0.53531466    -0.50300
C1123       C  0.01623197  0.20374752  0.58221615     0.71700
O1124       O  0.99641616  0.20592666  0.57738471    -0.45100
C1125       C  0.99089785  0.14439760  0.59326910     0.76500
O1126       O  0.95906016  0.17746226  0.55490144    -0.57000
O1127       O  0.00491903  0.14247493  0.57847541    -0.47100
O1128       O  0.97518918  0.14882511  0.54452119    -0.53400
C1129       C  0.00982007  0.17636498  0.52194178     0.86600
O1130       O  0.02444959  0.18630197  0.57578774    -0.55300
O1131       O  0.98003874  0.16158660  0.59238556    -0.58600
In1132     In  0.05254912  0.17357381  0.39396699     1.36900
C1133       C  0.08851066  0.16203301  0.41361437     0.79100
O1134       O  0.04863328  0.19044232  0.42519906    -0.59400
O1135       O  0.02795105  0.16376548  0.41880453    -0.50300
C1136       C  0.03244652  0.20441515  0.37201352     0.71700
O1137       O  0.05195229  0.20654732  0.37787653    -0.45100
C1138       C  0.05698178  0.14400794  0.36344198     0.76500
O1139       O  0.08753514  0.17946448  0.40289286    -0.57000
O1140       O  0.04254834  0.14283163  0.37786469    -0.47100
O1141       O  0.07151422  0.15091644  0.41338717    -0.53400
C1142       C  0.03446559  0.17766652  0.43224590     0.86600
O1143       O  0.02385156  0.18695734  0.37776440    -0.55300
O1144       O  0.06827663  0.16087604  0.36421977    -0.58600
In1145     In  0.84860250  0.58449092  0.69819387     1.36900
C1146       C  0.83117700  0.59503503  0.66122535     0.79100
O1147       O  0.81805444  0.56657488  0.70399842    -0.59400
O1148       O  0.82197765  0.59699462  0.71928647    -0.50300
C1149       C  0.86932737  0.55629605  0.72226117     0.71700
O1150       O  0.86422142  0.55193700  0.70290454    -0.45100
C1151       C  0.88155280  0.61106658  0.69296303     0.76500
O1152       O  0.84109670  0.57720944  0.66334630    -0.57000
O1153       O  0.86696632  0.61416393  0.70699103    -0.47100
O1154       O  0.83075061  0.60681118  0.67777044    -0.53400
C1155       C  0.80970203  0.58109838  0.71559867     0.86600
O1156       O  0.86328980  0.57459394  0.72868467    -0.55300
O1157       O  0.87940904  0.59398092  0.68216466    -0.58600
In1158     In  0.68336703  0.57690599  0.76484384     1.36900
C1159       C  0.70206534  0.58976845  0.80078080     0.79100
O1160       O  0.71434691  0.56078533  0.75558701    -0.59400
O1161       O  0.70769606  0.59211988  0.74311101    -0.50300
C1162       C  0.66198106  0.54705690  0.74320684     0.71700
O1163       O  0.66944110  0.54316571  0.76191520    -0.45100
C1164       C  0.65051008  0.60357218  0.76955502     0.76500
O1165       O  0.69281414  0.57150831  0.79991335    -0.57000
O1166       O  0.66417025  0.60520946  0.75446721    -0.47100
O1167       O  0.70126174  0.60057500  0.78363492    -0.53400
C1168       C  0.72102947  0.57678958  0.74491763     0.86600
O1169       O  0.66624536  0.56556088  0.73606376    -0.55300
O1170       O  0.65326467  0.58751294  0.78177660    -0.58600
In1171     In  0.59883637  0.46655518  0.65401624     1.36900
C1172       C  0.58275533  0.42833297  0.64551057     0.79100
O1173       O  0.56715052  0.47302183  0.66982941    -0.59400
O1174       O  0.57323630  0.48722760  0.63913056    -0.50300
C1175       C  0.61683743  0.48983779  0.68505294     0.71700
O1176       O  0.61263312  0.47006834  0.68773000    -0.45100
C1177       C  0.63083332  0.46269378  0.62558429     0.76500
O1178       O  0.59404518  0.43138251  0.66231501    -0.57000
O1179       O  0.61566054  0.47618994  0.62348650    -0.47100
O1180       O  0.57981408  0.44468034  0.63391701    -0.53400
C1181       C  0.55999718  0.48425249  0.65439704     0.86600
O1182       O  0.61198573  0.49705536  0.66667181    -0.55300
O1183       O  0.63019808  0.45216672  0.64296223    -0.58600
In1184     In  0.43564661  0.53758282  0.65157405     1.36900
C1185       C  0.45479435  0.57431704  0.64326542     0.79100
O1186       O  0.46560080  0.52804315  0.66860148    -0.59400
O1187       O  0.46017150  0.51572030  0.63693088    -0.50300
C1188       C  0.41430756  0.51374877  0.67968516     0.71700
O1189       O  0.42167879  0.53205516  0.68495629    -0.45100
C1190       C  0.40425821  0.54483606  0.62396155     0.76500
O1191       O  0.44310690  0.57218782  0.65998774    -0.57000
O1192       O  0.41802102  0.52999862  0.62123601    -0.47100
O1193       O  0.45643371  0.55780583  0.63163509    -0.53400
C1194       C  0.47273324  0.51706490  0.65299223     0.86600
O1195       O  0.41792163  0.50846295  0.66040957    -0.55300
O1196       O  0.40630718  0.55537589  0.64123087    -0.58600
In1197     In  0.93646087  0.47711362  0.81026523     1.36900
C1198       C  0.95383661  0.43942087  0.81915965     0.79100
O1199       O  0.96635810  0.48456309  0.79201427    -0.59400
O1200       O  0.96292354  0.49779394  0.82360332    -0.50300
C1201       C  0.91653434  0.50071425  0.78094021     0.71700
O1202       O  0.92175766  0.48131340  0.77725702    -0.45100
C1203       C  0.90410953  0.47148822  0.83779109     0.76500
O1204       O  0.94303457  0.44225384  0.80195929    -0.57000
O1205       O  0.91894621  0.48516302  0.84092241    -0.47100
O1206       O  0.95565415  0.45580327  0.83094908    -0.53400
C1207       C  0.97474338  0.49537175  0.80707717     0.86600
O1208       O  0.92164785  0.50745736  0.79944457    -0.55300
O1209       O  0.90541625  0.46171207  0.82001082    -0.58600
In1210     In  0.10184987  0.54173681  0.80117557     1.36900
C1211       C  0.08351457  0.57801465  0.81299753     0.79100
O1212       O  0.07044057  0.53397373  0.78527642    -0.59400
O1213       O  0.07774409  0.51889604  0.81522457    -0.50300
C1214       C  0.12413293  0.52198332  0.77065914     0.71700
O1215       O  0.11570911  0.54029115  0.76725855    -0.45100
C1216       C  0.13376586  0.54661400  0.82919338     0.76500
O1217       O  0.09361375  0.57676583  0.79519171    -0.57000
O1218       O  0.11983233  0.53181166  0.83071855    -0.47100
O1219       O  0.08311857  0.56097520  0.82393511    -0.53400
C1220       C  0.06387818  0.52229490  0.80061817     0.86600
O1221       O  0.12011341  0.51402230  0.78892446    -0.55300
O1222       O  0.13179090  0.55830223  0.81264453    -0.58600
In1223     In  0.18614142  0.43102996  0.69334457     1.36900
C1224       C  0.20398706  0.42068096  0.65634916     0.79100
O1225       O  0.21835368  0.44576346  0.69954219    -0.59400
O1226       O  0.21072165  0.41639477  0.71551328    -0.50300
C1227       C  0.16950349  0.46413735  0.71446826     0.71700
O1228       O  0.17249276  0.46494591  0.69427329    -0.45100
C1229       C  0.15292426  0.40400121  0.68997822     0.76500
O1230       O  0.19408147  0.43843483  0.65852983    -0.57000
O1231       O  0.16730954  0.40207064  0.70434074    -0.47100
O1232       O  0.20410927  0.40874644  0.67274838    -0.53400
C1233       C  0.22467685  0.43081804  0.71183990     0.86600
O1234       O  0.17462020  0.44648518  0.72309115    -0.55300
O1235       O  0.15492877  0.42054334  0.67837670    -0.58600
In1236     In  0.35188512  0.42186205  0.75786240     1.36900
C1237       C  0.33406497  0.41086397  0.79459179     0.79100
O1238       O  0.32171246  0.44055478  0.75221717    -0.59400
O1239       O  0.32537284  0.41014653  0.73658869    -0.50300
C1240       C  0.37180585  0.45212865  0.73562316     0.71700
O1241       O  0.36703578  0.45482747  0.75533938    -0.45100
C1242       C  0.38259394  0.39263005  0.76190446     0.76500
O1243       O  0.34543483  0.42781786  0.79315376    -0.57000
O1244       O  0.36803529  0.39139443  0.74761480    -0.47100
O1245       O  0.33222328  0.40020945  0.77744300    -0.53400
C1246       C  0.31333288  0.42617596  0.74052315     0.86600
O1247       O  0.36680309  0.43394008  0.72813413    -0.55300
O1248       O  0.38217630  0.40970320  0.77291103    -0.58600
C1249       C  0.25966390  0.44861622  0.72166405     0.25100
C1250       C  0.24702535  0.42987120  0.72029904    -0.23000
C1251       C  0.25642789  0.41000582  0.72578103     0.20000
C1252       C  0.27809055  0.40884450  0.73200784     0.25000
C1253       C  0.29075313  0.42751340  0.73306115    -0.23000
C1254       C  0.28126905  0.44745840  0.72818533     0.19900
F1255       F  0.29303650  0.46580240  0.72933100    -0.12900
F1256       F  0.25108602  0.46812329  0.71683849    -0.15300
F1257       F  0.28653398  0.38948581  0.73761808    -0.15300
F1258       F  0.24484599  0.39156275  0.72457584    -0.12900
C1259       C  0.16477457  0.48215954  0.74984332     0.25100
C1260       C  0.16052467  0.48191469  0.72760422    -0.23000
C1261       C  0.14645732  0.49751090  0.71895592     0.20000
C1262       C  0.13517194  0.51159176  0.73271681     0.25000
C1263       C  0.13804736  0.51028282  0.75518516    -0.23000
C1264       C  0.15374984  0.49617174  0.76340396     0.19900
F1265       F  0.15821965  0.49562893  0.78481786    -0.12900
F1266       F  0.17938251  0.46843883  0.75866436    -0.15300
F1267       F  0.12061710  0.52552923  0.72421107    -0.15300
F1268       F  0.14274447  0.49834973  0.69742770    -0.12900
C1269       C  0.00602123  0.50898047  0.78557204     0.25100
C1270       C  0.99713767  0.50341913  0.80564901    -0.23000
C1271       C  0.01040036  0.50380859  0.82399930     0.20000
C1272       C  0.03228386  0.50911146  0.82222021     0.25000
C1273       C  0.04124572  0.51465301  0.80210267    -0.23000
C1274       C  0.02777664  0.51473505  0.78383679     0.19900
F1275       F  0.03564902  0.52029304  0.76420975    -0.12900
F1276       F  0.99351661  0.50918307  0.76761608    -0.15300
F1277       F  0.04456006  0.50926531  0.84032718    -0.15300
F1278       F  0.00234340  0.49842995  0.84360769    -0.12900
C1279       C  0.39349043  0.48005253  0.68604183     0.25100
C1280       C  0.40257886  0.49900320  0.69444670    -0.23000
C1281       C  0.40079824  0.50292952  0.71673010     0.20000
C1282       C  0.39062291  0.48790886  0.73030116     0.25000
C1283       C  0.38214150  0.46869487  0.72181103    -0.23000
C1284       C  0.38350462  0.46518125  0.69946262     0.19900
F1285       F  0.37502342  0.44727975  0.69029952    -0.12900
F1286       F  0.39418958  0.47567705  0.66462431    -0.15300
F1287       F  0.38935689  0.49205580  0.75172011    -0.15300
F1288       F  0.40914641  0.52108554  0.72545589    -0.12900
C1289       C  0.52631345  0.49605509  0.67332525     0.25100
C1290       C  0.53762732  0.49257984  0.65399776    -0.23000
C1291       C  0.52706198  0.49632510  0.63427834     0.20000
C1292       C  0.50566631  0.50353365  0.63390918     0.25000
C1293       C  0.49456144  0.50750772  0.65326542    -0.23000
C1294       C  0.50509527  0.50368176  0.67296149     0.19900
F1295       F  0.49483157  0.50727826  0.69194430    -0.12900
F1296       F  0.53592055  0.49251200  0.69265524    -0.15300
F1297       F  0.49607563  0.50724135  0.61458937    -0.15300
F1298       F  0.53729757  0.49265059  0.61530316    -0.12900
C1299       C  0.63563333  0.54002258  0.71372002     0.25100
C1300       C  0.64899016  0.53179700  0.73013584    -0.23000
C1301       C  0.65029768  0.50935789  0.73284588     0.20000
C1302       C  0.63920519  0.49549545  0.71875241     0.25000
C1303       C  0.62678437  0.50387675  0.70166786    -0.23000
C1304       C  0.62476514  0.52631055  0.69970399     0.19900
F1305       F  0.61229932  0.53516378  0.68402671    -0.12900
F1306       F  0.63310518  0.56154572  0.71104004    -0.15300
F1307       F  0.64141748  0.47393783  0.72122509    -0.15300
F1308       F  0.66306603  0.50082004  0.74841942    -0.12900
C1309       C  0.88823499  0.52100830  0.73017678     0.25100
C1310       C  0.88161939  0.54166983  0.73670808    -0.23000
C1311       C  0.88714401  0.54871683  0.75754823     0.20000
C1312       C  0.89872995  0.53553868  0.77151588     0.25000
C1313       C  0.90504250  0.51472073  0.76526842    -0.23000
C1314       C  0.89989492  0.50767231  0.74431754     0.19900
F1315       F  0.90617796  0.48793568  0.73744750    -0.12900
F1316       F  0.88336789  0.51362703  0.71019947    -0.15300
F1317       F  0.90362353  0.54335821  0.79133404    -0.15300
F1318       F  0.88132646  0.56851838  0.76468956    -0.12900
C1319       C  0.77739350  0.59735410  0.73416965     0.25100
C1320       C  0.78701714  0.57984702  0.72342451    -0.23000
C1321       C  0.77433554  0.56147427  0.71928284     0.20000
C1322       C  0.75278043  0.56054380  0.72602482     0.25000
C1323       C  0.74327808  0.57809176  0.73653964    -0.23000
C1324       C  0.75569047  0.59655556  0.74040509     0.19900
F1325       F  0.74698424  0.61360492  0.75093095    -0.12900
F1326       F  0.78890976  0.61532677  0.73866512    -0.15300
F1327       F  0.74101851  0.54264726  0.72185373    -0.15300
F1328       F  0.78270850  0.54433738  0.70865030    -0.12900
C1329       C  0.03747423  0.18079503  0.49300425     0.25100
C1330       C  0.01606364  0.17690306  0.49902184    -0.23000
C1331       C  0.00042709  0.17353226  0.48292981     0.20000
C1332       C  0.00622987  0.17376530  0.46108524     0.25000
C1333       C  0.02763347  0.17801001  0.45505076    -0.23000
C1334       C  0.04316664  0.18164642  0.47120421     0.19900
F1335       F  0.06408062  0.18532046  0.46587271    -0.12900
F1336       F  0.05279997  0.18413125  0.50824139    -0.15300
F1337       F  0.99091912  0.17021208  0.44586801    -0.15300
F1338       F  0.97963294  0.16946756  0.48842852    -0.12900
C1339       C  0.98657890  0.40015188  0.85165360     0.25100
C1340       C  0.97423425  0.38129630  0.84976574    -0.23000
C1341       C  0.95763244  0.38070953  0.83416499     0.20000
C1342       C  0.95208475  0.39925795  0.82248818     0.25000
C1343       C  0.96299510  0.41863006  0.82625480    -0.23000
C1344       C  0.98098402  0.41859137  0.84006587     0.19900
F1345       F  0.99257727  0.43682430  0.84319070    -0.12900
F1346       F  0.00338789  0.40122604  0.86561780    -0.15300
F1347       F  0.93490736  0.39871157  0.80893293    -0.15300
F1348       F  0.94585180  0.36261217  0.83110583    -0.12900
C1349       C  0.01158092  0.35074457  0.96830213     0.25100
C1350       C  0.00473195  0.33173213  0.95806925    -0.23000
C1351       C  0.00489537  0.31241717  0.96997566     0.20000
C1352       C  0.01237473  0.31201054  0.99126639     0.25000
C1353       C  0.01939561  0.33094476  0.00133086    -0.23000
C1354       C  0.01856928  0.35037975  0.98978006     0.19900
F1355       F  0.02533611  0.36895283  0.99901565    -0.12900
F1356       F  0.01148662  0.36977373  0.95759991    -0.15300
F1357       F  0.01254784  0.29307530  0.00214245    -0.15300
F1358       F  0.99803399  0.29377100  0.96098776    -0.12900
C1359       C  0.05039862  0.21438794  0.60104796     0.25100
C1360       C  0.02924503  0.21976843  0.59469145    -0.23000
C1361       C  0.02111160  0.24010209  0.60071161     0.20000
C1362       C  0.03407557  0.25477589  0.61230128     0.25000
C1363       C  0.05541211  0.24937446  0.61825890    -0.23000
C1364       C  0.06314358  0.22880720  0.61264225     0.19900
F1365       F  0.08329087  0.22237550  0.61833088    -0.12900
F1366       F  0.05897846  0.19488553  0.59623106    -0.15300
F1367       F  0.02564912  0.27414788  0.61779584    -0.15300
F1368       F  0.00065652  0.24583728  0.59539290    -0.12900
C1369       C  0.12093198  0.35242855  0.69487621     0.25100
C1370       C  0.11196217  0.35063876  0.67412098    -0.23000
C1371       C  0.11347396  0.36819772  0.66000521     0.20000
C1372       C  0.12540329  0.38645387  0.66585532     0.25000
C1373       C  0.13619123  0.38734559  0.68588137    -0.23000
C1374       C  0.13284998  0.37059886  0.70073480     0.19900
F1375       F  0.14197653  0.37128989  0.72060260    -0.12900
F1376       F  0.11912454  0.33597369  0.70914461    -0.15300
F1377       F  0.12780589  0.40245046  0.65118074    -0.15300
F1378       F  0.10531073  0.36682936  0.63976745    -0.12900
C1379       C  0.03934584  0.28829707  0.87092487     0.25100
C1380       C  0.01691108  0.28557942  0.86901805    -0.23000
C1381       C  0.00915576  0.26720971  0.85822210     0.20000
C1382       C  0.02365936  0.25254693  0.84861424     0.25000
C1383       C  0.04612331  0.25607563  0.84963617    -0.23000
C1384       C  0.05365141  0.27385053  0.86145350     0.19900
F1385       F  0.07509805  0.27756040  0.86379881    -0.12900
F1386       F  0.04769183  0.30510170  0.88207521    -0.15300
F1387       F  0.01569606  0.23532983  0.83784959    -0.15300
F1388       F  0.98762006  0.26379095  0.85635065    -0.12900
C1389       C  0.11178831  0.25723376  0.74685167     0.25100
C1390       C  0.09179769  0.25394829  0.75705814    -0.23000
C1391       C  0.07271964  0.25779908  0.74539368     0.20000
C1392       C  0.07361620  0.26448717  0.72387006     0.25000
C1393       C  0.09359746  0.26694357  0.71342397    -0.23000
C1394       C  0.11267964  0.26348563  0.72521942     0.19900
F1395       F  0.13227849  0.26637414  0.71590889    -0.12900
F1396       F  0.13055253  0.25349660  0.75751343    -0.15300
F1397       F  0.05488662  0.26800094  0.71308868    -0.15300
F1398       F  0.05315290  0.25497101  0.75477847    -0.12900
C1399       C  0.00276838  0.25178717  0.10679593     0.25100
C1400       C  0.98436508  0.26043595  0.11696441    -0.23000
C1401       C  0.98105284  0.28279914  0.11607699     0.20000
C1402       C  0.99545820  0.29612662  0.10523262     0.25000
C1403       C  0.01364275  0.28761044  0.09460420    -0.23000
C1404       C  0.01728469  0.26525545  0.09570568     0.19900
F1405       F  0.03460797  0.25634772  0.08575020    -0.12900
F1406       F  0.00644237  0.23028507  0.10708841    -0.15300
F1407       F  0.99140086  0.31757741  0.10522825    -0.15300
F1408       F  0.96375329  0.29204637  0.12580518    -0.12900
C1409       C  0.98800338  0.22850645  0.33802887     0.25100
C1410       C  0.99192882  0.25075853  0.33934696    -0.23000
C1411       C  0.01096618  0.25770620  0.34966117     0.20000
C1412       C  0.02493111  0.24270889  0.35958851     0.25000
C1413       C  0.01997259  0.22060081  0.35943267    -0.23000
C1414       C  0.00171775  0.21374719  0.34792025     0.19900
F1415       F  0.99689611  0.19253056  0.34629013    -0.12900
F1416       F  0.97059752  0.22078981  0.32726516    -0.15300
F1417       F  0.04272013  0.24988711  0.37007629    -0.15300
F1418       F  0.01567078  0.27895598  0.35084584    -0.12900
C1419       C  0.92291155  0.25892002  0.21962530     0.25100
C1420       C  0.94176977  0.25166411  0.20922583    -0.23000
C1421       C  0.96130269  0.25142610  0.22084389     0.20000
C1422       C  0.96191567  0.25806113  0.24235305     0.25000
C1423       C  0.94301175  0.26478068  0.25281215    -0.23000
C1424       C  0.92351130  0.26524782  0.24126062     0.19900
F1425       F  0.90511246  0.27241168  0.25073486    -0.12900
F1426       F  0.90376699  0.25957064  0.20902537    -0.15300
F1427       F  0.98096968  0.25748642  0.25312439    -0.15300
F1428       F  0.97992055  0.24484949  0.21140368    -0.12900
C1429       C  0.61259173  0.24593418  0.21653266     0.25100
C1430       C  0.59356761  0.25521793  0.20821364    -0.23000
C1431       C  0.57533187  0.25656669  0.22178159     0.20000
C1432       C  0.57629891  0.24926442  0.24316843     0.25000
C1433       C  0.59565537  0.24105761  0.25164593    -0.23000
C1434       C  0.61367586  0.23922332  0.23806504     0.19900
F1435       F  0.63228816  0.23044325  0.24555841    -0.12900
F1436       F  0.63036225  0.24362792  0.20398062    -0.15300
F1437       F  0.55848784  0.25088011  0.25579481    -0.15300
F1438       F  0.55655400  0.26514521  0.21447594    -0.12900
C1439       C  0.51994015  0.26750710  0.35536938     0.25100
C1440       C  0.52735176  0.28744234  0.36314776    -0.23000
C1441       C  0.54916376  0.29284913  0.35983966     0.20000
C1442       C  0.56329167  0.27861592  0.34968152     0.25000
C1443       C  0.55619557  0.25834720  0.34252582    -0.23000
C1444       C  0.53421862  0.25311148  0.34513748     0.19900
F1445       F  0.52646111  0.23418240  0.33760050    -0.12900
F1446       F  0.49887554  0.26199798  0.35746236    -0.15300
F1447       F  0.58415069  0.28476040  0.34721160    -0.15300
F1448       F  0.55718644  0.31187495  0.36689520    -0.12900
C1449       C  0.58185524  0.37142506  0.62559410     0.25100
C1450       C  0.56278329  0.37172712  0.61316265    -0.23000
C1451       C  0.54842453  0.38907717  0.61549534     0.20000
C1452       C  0.55413873  0.40678747  0.62803005     0.25000
C1453       C  0.57419705  0.40742092  0.63856909    -0.23000
C1454       C  0.58754108  0.38921584  0.63816489     0.19900
F1455       F  0.60709736  0.38952868  0.64799758    -0.12900
F1456       F  0.59593494  0.35475219  0.62419776    -0.15300
F1457       F  0.54063508  0.42398325  0.62878624    -0.15300
F1458       F  0.52938296  0.38950171  0.60469572    -0.12900
C1459       C  0.52985157  0.30870019  0.48986674     0.25100
C1460       C  0.53356346  0.32814731  0.50075792    -0.23000
C1461       C  0.53118369  0.34761477  0.48949233     0.20000
C1462       C  0.52496000  0.34765704  0.46783579     0.25000
C1463       C  0.52065165  0.32822568  0.45706996    -0.23000
C1464       C  0.52330422  0.30873509  0.46829023     0.19900
F1465       F  0.51947722  0.28965823  0.45843164    -0.12900
F1466       F  0.53200313  0.28961863  0.50026954    -0.15300
F1467       F  0.52246252  0.36681873  0.45765425    -0.15300
F1468       F  0.53519452  0.36666467  0.49933636    -0.12900
C1469       C  0.51264202  0.25211223  0.61441536     0.25100
C1470       C  0.49020324  0.25441368  0.61180832    -0.23000
C1471       C  0.48236894  0.27027276  0.59766229     0.20000
C1472       C  0.49647440  0.28407644  0.58701503     0.25000
C1473       C  0.51889661  0.28240011  0.59011717    -0.23000
C1474       C  0.52691087  0.26598453  0.60357681     0.19900
F1475       F  0.54843193  0.26406587  0.60710332    -0.12900
F1476       F  0.52069730  0.23730974  0.62833104    -0.15300
F1477       F  0.48803829  0.29925148  0.57370025    -0.15300
F1478       F  0.46085471  0.27254789  0.59415637    -0.12900
C1479       C  0.44974237  0.23608694  0.74571744     0.25100
C1480       C  0.44746456  0.25792206  0.75072510    -0.23000
C1481       C  0.44621913  0.27313144  0.73403542     0.20000
C1482       C  0.44668227  0.26655014  0.71253116     0.25000
C1483       C  0.44931217  0.24474630  0.70742898    -0.23000
C1484       C  0.45103999  0.22955124  0.72417890     0.19900
F1485       F  0.45302784  0.20829382  0.71966994    -0.12900
F1486       F  0.45091385  0.22118397  0.76165845    -0.15300
F1487       F  0.44463661  0.28147528  0.69669852    -0.15300
F1488       F  0.44377639  0.29432879  0.73861059    -0.12900
C1489       C  0.41306928  0.37665984  0.78342712     0.25100
C1490       C  0.39771782  0.37474712  0.76673977    -0.23000
C1491       C  0.39499338  0.35464264  0.75677216     0.20000
C1492       C  0.40599981  0.33659880  0.76443963     0.25000
C1493       C  0.42010657  0.33824909  0.78212356    -0.23000
C1494       C  0.42411036  0.35853505  0.79108363     0.19900
F1495       F  0.43735704  0.36057363  0.80837235    -0.12900
F1496       F  0.41658138  0.39583430  0.79319932    -0.15300
F1497       F  0.40214866  0.31727461  0.75505553    -0.15300
F1498       F  0.38070732  0.35206338  0.74040530    -0.12900
C1499       C  0.55366149  0.22570368  0.11433504     0.25100
C1500       C  0.54826603  0.24752954  0.11690902    -0.23000
C1501       C  0.52863457  0.25499485  0.10811734     0.20000
C1502       C  0.51507984  0.24092238  0.09655477     0.25000
C1503       C  0.52113068  0.21928994  0.09339053    -0.23000
C1504       C  0.54048786  0.21193926  0.10267342     0.19900
F1505       F  0.54688087  0.19115416  0.10063972    -0.12900
F1506       F  0.57188376  0.21736213  0.12317411    -0.15300
F1507       F  0.49637318  0.24856816  0.08812144    -0.15300
F1508       F  0.52277541  0.27590508  0.11025916    -0.12900
C1509       C  0.47742684  0.22979480  0.85719507     0.25100
C1510       C  0.48512889  0.24713306  0.84486542    -0.23000
C1511       C  0.50748681  0.25092949  0.84407716     0.20000
C1512       C  0.52186482  0.23737465  0.85513737     0.25000
C1513       C  0.51410377  0.21974355  0.86703127    -0.23000
C1514       C  0.49168035  0.21634743  0.86817169     0.19900
F1515       F  0.48337332  0.19992335  0.87995042    -0.12900
F1516       F  0.45595135  0.22577360  0.85872734    -0.15300
F1517       F  0.54337295  0.24105238  0.85355536    -0.15300
F1518       F  0.51550299  0.26715144  0.83187080    -0.12900
C1519       C  0.51610172  0.19252063  0.96327732     0.25100
C1520       C  0.52720633  0.17462213  0.95527717    -0.23000
C1521       C  0.53178560  0.15728775  0.96901634     0.20000
C1522       C  0.52537981  0.15791012  0.99061566     0.25000
C1523       C  0.51380586  0.17571551  0.99864929    -0.23000
C1524       C  0.50921683  0.19299271  0.98467183     0.19900
F1525       F  0.49798329  0.21039588  0.99160508    -0.12900
F1526       F  0.51156004  0.20942629  0.95019042    -0.15300
F1527       F  0.53044395  0.14103477  0.00355093    -0.15300
F1528       F  0.54312755  0.14008709  0.96171303    -0.12900
C1529       C  0.04804104  0.10816260  0.34706176     0.25100
C1530       C  0.06140625  0.12641005  0.34784401    -0.23000
C1531       C  0.08043655  0.12655352  0.33531871     0.20000
C1532       C  0.08693934  0.10815593  0.32402480     0.25000
C1533       C  0.07448197  0.08941615  0.32492794    -0.23000
C1534       C  0.05453660  0.08987826  0.33569115     0.19900
F1535       F  0.04191144  0.07206709  0.33625974    -0.12900
F1536       F  0.02926062  0.10747252  0.35828031    -0.15300
F1537       F  0.10646447  0.10797960  0.31412749    -0.15300
F1538       F  0.09368829  0.14388229  0.33530445    -0.12900
C1539       C  0.01206725  0.98530100  0.29767114     0.25100
C1540       C  0.99757171  0.99226063  0.31372177    -0.23000
C1541       C  0.00573165  0.00420591  0.33122879     0.20000
C1542       C  0.02773311  0.00948357  0.33224552     0.25000
C1543       C  0.04187922  0.00309189  0.31571079    -0.23000
C1544       C  0.03387200  0.99081809  0.29860066     0.19900
F1545       F  0.04729077  0.98403747  0.28272004    -0.12900
F1546       F  0.00521628  0.97312724  0.28090078    -0.15300
F1547       F  0.03498064  0.02170494  0.34884283    -0.15300
F1548       F  0.99247368  0.01095236  0.34727819    -0.12900
C1549       C  0.13789491  0.00048714  0.24620838     0.25100
C1550       C  0.13588945  0.99450178  0.26803866    -0.23000
C1551       C  0.14556661  0.97514172  0.27480379     0.20000
C1552       C  0.15627027  0.96183338  0.26016528     0.25000
C1553       C  0.15761626  0.96731283  0.23815838    -0.23000
C1554       C  0.14857881  0.98700177  0.23141422     0.19900
F1555       F  0.14977606  0.99310830  0.21046212    -0.12900
F1556       F  0.12928115  0.01924251  0.23905784    -0.15300
F1557       F  0.16540988  0.94348559  0.26777326    -0.15300
F1558       F  0.14480776  0.96892415  0.29576395    -0.12900
C1559       C  0.26208003  0.90806968  0.22003620     0.25100
C1560       C  0.24993593  0.92710389  0.22114603    -0.23000
C1561       C  0.25995564  0.94618713  0.22777855     0.20000
C1562       C  0.28164080  0.94603993  0.23405935     0.25000
C1563       C  0.29374657  0.92685775  0.23331003    -0.23000
C1564       C  0.28379398  0.90795829  0.22591659     0.19900
F1565       F  0.29488881  0.88916208  0.22484271    -0.12900
F1566       F  0.25305312  0.88960682  0.21270567    -0.15300
F1567       F  0.29074400  0.96466302  0.24085515    -0.15300
F1568       F  0.24861527  0.96484981  0.22867701    -0.12900
C1569       C  0.40357981  0.97360405  0.18675163     0.25100
C1570       C  0.40834704  0.99486920  0.19285032    -0.23000
C1571       C  0.40137367  0.00214471  0.21317977     0.20000
C1572       C  0.39027283  0.98827154  0.22721555     0.25000
C1573       C  0.38585944  0.96692982  0.22110845    -0.23000
C1574       C  0.39259956  0.95988718  0.20063122     0.19900
F1575       F  0.38878113  0.93949875  0.19385675    -0.12900
F1576       F  0.40945146  0.96583625  0.16716621    -0.15300
F1577       F  0.38377733  0.99577720  0.24668037    -0.15300
F1578       F  0.40527961  0.02262992  0.21951616    -0.12900
C1579       C  0.48921868  0.10545755  0.09976067     0.25100
C1580       C  0.47955354  0.12550479  0.10380927    -0.23000
C1581       C  0.46430229  0.12717804  0.12060387     0.20000
C1582       C  0.45779646  0.10887352  0.13204041     0.25000
C1583       C  0.46625734  0.08863635  0.12670292    -0.23000
C1584       C  0.48256682  0.08724343  0.11099275     0.19900
F1585       F  0.49164958  0.06802387  0.10591279    -0.12900
F1586       F  0.50428523  0.10311529  0.08405987    -0.15300
F1587       F  0.44219318  0.11075671  0.14725938    -0.15300
F1588       F  0.45489828  0.14631631  0.12531948    -0.12900
C1589       C  0.52921147  0.98041876  0.15274962     0.25100
C1590       C  0.54591108  0.99503868  0.15694084    -0.23000
C1591       C  0.54092507  0.01681033  0.16007168     0.20000
C1592       C  0.51939005  0.02375368  0.15946757     0.25000
C1593       C  0.50269465  0.00909903  0.15492549    -0.23000
C1594       C  0.50783256  0.98743788  0.15135852     0.19900
F1595       F  0.49208703  0.97298617  0.14688526    -0.12900
F1596       F  0.53369884  0.95935643  0.14944034    -0.15300
F1597       F  0.51492013  0.04488563  0.16262017    -0.15300
F1598       F  0.55684522  0.03122229  0.16403745    -0.12900
C1599       C  0.62982492  0.15734337  0.27150650     0.25100
C1600       C  0.61885827  0.15826235  0.29132178    -0.23000
C1601       C  0.61943043  0.14029113  0.30499530     0.20000
C1602       C  0.63200570  0.12228874  0.29957292     0.25000
C1603       C  0.64431681  0.12205977  0.28042316    -0.23000
C1604       C  0.64250326  0.13954228  0.26616488     0.19900
F1605       F  0.65367982  0.13986670  0.24736710    -0.12900
F1606       F  0.62905404  0.17423898  0.25765825    -0.15300
F1607       F  0.63332903  0.10579592  0.31383804    -0.15300
F1608       F  0.60942684  0.14089143  0.32443634    -0.12900
C1609       C  0.64453380  0.03937622  0.21887716     0.25100
C1610       C  0.65786891  0.03062959  0.23500279    -0.23000
C1611       C  0.65978235  0.00809180  0.23642539     0.20000
C1612       C  0.64919567  0.99472265  0.22138556     0.25000
C1613       C  0.63629889  0.00371744  0.20493531    -0.23000
C1614       C  0.63382253  0.02619615  0.20426492     0.19900
F1615       F  0.62094310  0.03567616  0.18930952    -0.12900
F1616       F  0.64176866  0.06096402  0.21713523    -0.15300
F1617       F  0.65228194  0.97315144  0.22238021    -0.15300
F1618       F  0.67260877  0.99906603  0.25167821    -0.12900
C1619       C  0.89498313  0.14890331  0.20007196     0.25100
C1620       C  0.89656091  0.12966159  0.18829427    -0.23000
C1621       C  0.91079391  0.12882010  0.17055430     0.20000
C1622       C  0.92212189  0.14719098  0.16400625     0.25000
C1623       C  0.91936167  0.16669636  0.17500071    -0.23000
C1624       C  0.90619032  0.16719641  0.19344653     0.19900
F1625       F  0.90351340  0.18572486  0.20468437    -0.12900
F1626       F  0.88181005  0.15040516  0.21747887    -0.15300
F1627       F  0.93436417  0.14631517  0.14590341    -0.15300
F1628       F  0.91277629  0.11062773  0.15866932    -0.12900
C1629       C  0.89370898  0.01722407  0.22828209     0.25100
C1630       C  0.88451660  0.03666449  0.23554169    -0.23000
C1631       C  0.88565746  0.04144275  0.25770412     0.20000
C1632       C  0.89580841  0.02751736  0.27209505     0.25000
C1633       C  0.90512059  0.00811838  0.26500480    -0.23000
C1634       C  0.90376527  0.00299113  0.24291532     0.19900
F1635       F  0.91244785  0.98442678  0.23540179    -0.12900
F1636       F  0.89328816  0.01212103  0.20704352    -0.15300
F1637       F  0.89616590  0.03310022  0.29323716    -0.15300
F1638       F  0.87669143  0.05965899  0.26578894    -0.12900
C1639       C  0.78974162  0.07332199  0.24803176     0.25100
C1640       C  0.79273704  0.07422938  0.22565330    -0.23000
C1641       C  0.77466987  0.07390034  0.21197555     0.20000
C1642       C  0.75382270  0.07319550  0.22060639     0.25000
C1643       C  0.75082058  0.07208536  0.24298893    -0.23000
C1644       C  0.76892825  0.07179594  0.25663150     0.19900
F1645       F  0.76640044  0.07090866  0.27833513    -0.12900
F1646       F  0.80697423  0.07376094  0.26151801    -0.15300
F1647       F  0.73657905  0.07341098  0.20712902    -0.15300
F1648       F  0.77721592  0.07516240  0.19028674    -0.12900
C1649       C  0.86367498  0.28913238  0.37603931     0.25100
C1650       C  0.86311716  0.30878516  0.38723949    -0.23000
C1651       C  0.88203405  0.32106325  0.38855383     0.20000
C1652       C  0.90034311  0.31516172  0.37663718     0.25000
C1653       C  0.90005789  0.29669673  0.36344592    -0.23000
C1654       C  0.88195881  0.28310847  0.36432936     0.19900
F1655       F  0.88132317  0.26463225  0.35272889    -0.12900
F1656       F  0.84600099  0.27628008  0.37538709    -0.15300
F1657       F  0.91766832  0.32845318  0.37675133    -0.15300
F1658       F  0.88216611  0.33982734  0.39966752    -0.12900
C1659       C  0.74393792  0.11904937  0.34563114     0.25100
C1660       C  0.73094840  0.12087442  0.36410268    -0.23000
C1661       C  0.71235669  0.10788702  0.36571776     0.20000
C1662       C  0.70591214  0.09492852  0.34836401     0.25000
C1663       C  0.71785526  0.09487937  0.32914303    -0.23000
C1664       C  0.73738293  0.10632608  0.32832212     0.19900
F1665       F  0.74971189  0.10599558  0.31025069    -0.12900
F1666       F  0.76253815  0.13038660  0.34380598    -0.15300
F1667       F  0.68705546  0.08396437  0.34969345    -0.15300
F1668       F  0.69960432  0.10876194  0.38347293    -0.12900
C1669       C  0.77148766  0.24061805  0.38865398     0.25100
C1670       C  0.76788119  0.23056297  0.40862793    -0.23000
C1671       C  0.77003739  0.24272495  0.42761505     0.20000
C1672       C  0.77544115  0.26457047  0.42656264     0.25000
C1673       C  0.77847813  0.27470124  0.40650507    -0.23000
C1674       C  0.77650992  0.26245509  0.38759590     0.19900
F1675       F  0.77998522  0.27146977  0.36798384    -0.12900
F1676       F  0.76957519  0.22945816  0.36997566    -0.15300
F1677       F  0.77742701  0.27586484  0.44515603    -0.15300
F1678       F  0.76715751  0.23344925  0.44720594    -0.12900
C1679       C  0.68624995  0.21411494  0.37032937     0.25100
C1680       C  0.68434263  0.19790688  0.38605369    -0.23000
C1681       C  0.66386105  0.18920958  0.39019994     0.20000
C1682       C  0.64600804  0.19538265  0.37759423     0.25000
C1683       C  0.64837115  0.21038082  0.36061278    -0.23000
C1684       C  0.66862153  0.22009969  0.35765551     0.19900
F1685       F  0.67181869  0.23463675  0.34166881    -0.12900
F1686       F  0.70556801  0.22366835  0.36654842    -0.15300
F1687       F  0.62669746  0.18586361  0.38137638    -0.15300
F1688       F  0.66137911  0.17372354  0.40541153    -0.12900
C1689       C  0.89902994  0.14426855  0.53790291     0.25100
C1690       C  0.90084078  0.12706716  0.52320786    -0.23000
C1691       C  0.92100010  0.12289229  0.51372001     0.20000
C1692       C  0.93921083  0.13439401  0.52006420     0.25000
C1693       C  0.93775308  0.15040705  0.53602401    -0.23000
C1694       C  0.91735354  0.15586722  0.54422287     0.19900
F1695       F  0.91530219  0.17148480  0.55932818    -0.12900
F1696       F  0.87970768  0.14933901  0.54685883    -0.15300
F1697       F  0.95848651  0.12930667  0.51099428    -0.15300
F1698       F  0.92344472  0.10686508  0.49909019    -0.12900
C1699       C  0.80109955  0.13393517  0.44428675     0.25100
C1700       C  0.77961992  0.13813051  0.45046867    -0.23000
C1701       C  0.77249663  0.13081964  0.47072083     0.20000
C1702       C  0.78658138  0.11964241  0.48447413     0.25000
C1703       C  0.80802253  0.11555643  0.47819798    -0.23000
C1704       C  0.81505493  0.12286302  0.45792878     0.19900
F1705       F  0.83562889  0.11949494  0.45117197    -0.12900
F1706       F  0.80886894  0.14057219  0.42494175    -0.15300
F1707       F  0.77912694  0.11261198  0.50378015    -0.15300
F1708       F  0.75186056  0.13423063  0.47715416    -0.12900
C1709       C  0.86637499  0.98885403  0.48036351     0.25100
C1710       C  0.84639222  0.97835540  0.47844398    -0.23000
C1711       C  0.82740352  0.98963527  0.48346279     0.20000
C1712       C  0.82824646  0.01117726  0.48963270     0.25000
C1713       C  0.84813610  0.02194268  0.49089256    -0.23000
C1714       C  0.86722779  0.01052499  0.48631421     0.19900
F1715       F  0.88676924  0.02024247  0.48773583    -0.12900
F1716       F  0.88505679  0.97840766  0.47575151    -0.15300
F1717       F  0.80948078  0.02157693  0.49398707    -0.15300
F1718       F  0.80792445  0.97976427  0.48241990    -0.12900
C1719       C  0.85741153  0.94066227  0.37074401     0.25100
C1720       C  0.86056273  0.95021765  0.39095330    -0.23000
C1721       C  0.87413325  0.96821795  0.39259585     0.20000
C1722       C  0.88601826  0.97522550  0.37488276     0.25000
C1723       C  0.88483466  0.96415780  0.35517884    -0.23000
C1724       C  0.86958362  0.94747407  0.35296697     0.19900
F1725       F  0.86743994  0.93677224  0.33404990    -0.12900
F1726       F  0.84408376  0.92351560  0.36863115    -0.15300
F1727       F  0.89985567  0.99189136  0.37758207    -0.15300
F1728       F  0.87687840  0.97832432  0.41178400    -0.12900
C1729       C  0.63270515  0.37118165  0.51159613     0.25100
C1730       C  0.65162423  0.37182172  0.52408152    -0.23000
C1731       C  0.65302637  0.35850307  0.54249044     0.20000
C1732       C  0.63508883  0.34656978  0.54937460     0.25000
C1733       C  0.61565565  0.34760802  0.53782727    -0.23000
C1734       C  0.61496472  0.35921138  0.51840959     0.19900
F1735       F  0.59658591  0.35983169  0.50650768    -0.12900
F1736       F  0.63081396  0.38311978  0.49337989    -0.15300
F1737       F  0.63614705  0.33561540  0.56826613    -0.15300
F1738       F  0.67121389  0.35809747  0.55466267    -0.12900
C1739       C  0.73498970  0.39063386  0.45297375     0.25100
C1740       C  0.74021680  0.39188341  0.47505858    -0.23000
C1741       C  0.75983612  0.38267862  0.48199612     0.20000
C1742       C  0.77349336  0.37200878  0.46730024     0.25000
C1743       C  0.76781141  0.37027915  0.44537749    -0.23000
C1744       C  0.74848472  0.37998034  0.43844129     0.19900
F1745       F  0.74246033  0.37921916  0.41741973    -0.12900
F1746       F  0.71665544  0.39975912  0.44520079    -0.15300
F1747       F  0.79195418  0.36284174  0.47467213    -0.15300
F1748       F  0.76561216  0.38351300  0.50305548    -0.12900
C1749       C  0.65885601  0.46381832  0.57136154     0.25100
C1750       C  0.67270312  0.44590575  0.57268501    -0.23000
C1751       C  0.67479577  0.43522464  0.59252620     0.20000
C1752       C  0.66211117  0.44144789  0.61025605     0.25000
C1753       C  0.64711242  0.45849745  0.60841783    -0.23000
C1754       C  0.64631791  0.47009546  0.58897931     0.19900
F1755       F  0.63264318  0.48699135  0.58656931    -0.12900
F1756       F  0.65681760  0.47488101  0.55260356    -0.15300
F1757       F  0.66373935  0.43002811  0.62882937    -0.15300
F1758       F  0.68783290  0.41776912  0.59431817    -0.12900
C1759       C  0.67870519  0.49234315  0.48263593     0.25100
C1760       C  0.69774747  0.48238508  0.49000541    -0.23000
C1761       C  0.71709406  0.49425738  0.48980337     0.20000
C1762       C  0.71747863  0.51532940  0.48182227     0.25000
C1763       C  0.69844095  0.52518940  0.47447537    -0.23000
C1764       C  0.67904591  0.51350905  0.47503592     0.19900
F1765       F  0.66044860  0.52232053  0.46752126    -0.12900
F1766       F  0.65959006  0.48174703  0.48305066    -0.15300
F1767       F  0.73646267  0.52616126  0.48147122    -0.15300
F1768       F  0.73575139  0.48544640  0.49712108    -0.12900
C1769       C  0.82444607  0.61188205  0.60326641     0.25100
C1770       C  0.80746908  0.62695393  0.60521568    -0.23000
C1771       C  0.79611328  0.62809536  0.62478744     0.20000
C1772       C  0.80286263  0.61607798  0.64252618     0.25000
C1773       C  0.82105223  0.60263351  0.64113301    -0.23000
C1774       C  0.83111813  0.59973213  0.62111994     0.19900
F1775       F  0.84850988  0.58657207  0.61927212    -0.12900
F1776       F  0.83545068  0.60976737  0.58448584    -0.15300
F1777       F  0.79222151  0.61843205  0.66150736    -0.15300
F1778       F  0.77932503  0.64189755  0.62731180    -0.12900
C1779       C  0.74244879  0.64323905  0.51358513     0.25100
C1780       C  0.76500897  0.64395940  0.51125439    -0.23000
C1781       C  0.77439088  0.63386288  0.49319729     0.20000
C1782       C  0.76146845  0.62252603  0.47836826     0.25000
C1783       C  0.73898843  0.62102298  0.48143589    -0.23000
C1784       C  0.72968459  0.63200694  0.49896163     0.19900
F1785       F  0.70800816  0.63193811  0.50212593    -0.12900
F1786       F  0.73250654  0.65349284  0.53014739    -0.15300
F1787       F  0.77102310  0.61252494  0.46144925    -0.15300
F1788       F  0.79607786  0.63430713  0.49027636    -0.12900
C1789       C  0.78929972  0.86518709  0.51247587     0.25100
C1790       C  0.76690394  0.86648301  0.50896368    -0.23000
C1791       C  0.75938044  0.87807462  0.49091549     0.20000
C1792       C  0.77401787  0.88891164  0.47732052     0.25000
C1793       C  0.79635899  0.88818517  0.48155411    -0.23000
C1794       C  0.80371654  0.87580966  0.49905426     0.19900
F1795       F  0.82511237  0.87385411  0.50336901    -0.12900
F1796       F  0.79752773  0.85353965  0.52907121    -0.15300
F1797       F  0.76630131  0.90055663  0.46049294    -0.15300
F1798       F  0.73792921  0.87945466  0.48678179    -0.12900
C1799       C  0.75557207  0.74029806  0.54210372     0.25100
C1800       C  0.76952567  0.73386447  0.55866034    -0.23000
C1801       C  0.77605217  0.74893559  0.57414454     0.20000
C1802       C  0.76900111  0.77030218  0.57287611     0.25000
C1803       C  0.75502089  0.77690731  0.55619980    -0.23000
C1804       C  0.74826596  0.76155861  0.54091904     0.19900
F1805       F  0.73448018  0.76701602  0.52482469    -0.12900
F1806       F  0.74873673  0.72584476  0.52724414    -0.15300
F1807       F  0.77609923  0.78451736  0.58784916    -0.15300
F1808       F  0.78999656  0.74316014  0.59000471    -0.12900
C1809       C  0.12106073  0.12876159  0.78900390     0.25100
C1810       C  0.13404658  0.13039602  0.77038440    -0.23000
C1811       C  0.13286597  0.14929191  0.75797265     0.20000
C1812       C  0.12035709  0.16669321  0.76492592     0.25000
C1813       C  0.10873741  0.16557782  0.78439648    -0.23000
C1814       C  0.10847727  0.14617173  0.79587295     0.19900
F1815       F  0.09777526  0.14472201  0.81488831    -0.12900
F1816       F  0.12178556  0.11094316  0.80160319    -0.15300
F1817       F  0.12053602  0.18511678  0.75317199    -0.15300
F1818       F  0.14471699  0.15144701  0.73970822    -0.12900
C1819       C  0.41022839  0.12803964  0.67199719     0.25100
C1820       C  0.39488665  0.13100438  0.68857340    -0.23000
C1821       C  0.39269151  0.15150944  0.69778945     0.20000
C1822       C  0.40468594  0.16878601  0.68999203     0.25000
C1823       C  0.41935574  0.16604349  0.67287831    -0.23000
C1824       C  0.42245504  0.14539980  0.66432839     0.19900
F1825       F  0.43629552  0.14225054  0.64768279    -0.12900
F1826       F  0.41284172  0.10854041  0.66256788    -0.15300
F1827       F  0.40143132  0.18845785  0.69889421    -0.15300
F1828       F  0.37815520  0.15521519  0.71371750    -0.12900
C1829       C  0.25507896  0.06335162  0.73453242     0.25100
C1830       C  0.24479135  0.08299470  0.73898142    -0.23000
C1831       C  0.25690253  0.10204303  0.73849171     0.20000
C1832       C  0.27892511  0.10148345  0.73363319     0.25000
C1833       C  0.28920359  0.08188125  0.72878771    -0.23000
C1834       C  0.27702493  0.06281313  0.72926244     0.19900
F1835       F  0.28632631  0.04361120  0.72458768    -0.12900
F1836       F  0.24375815  0.04469742  0.73478626    -0.15300
F1837       F  0.28999244  0.12027091  0.73296431    -0.15300
F1838       F  0.24752907  0.12120774  0.74319824    -0.12900
C1839       C  0.38254635  0.04041096  0.75980711     0.25100
C1840       C  0.38290473  0.03823772  0.73725409    -0.23000
C1841       C  0.39451528  0.02090160  0.72827193     0.20000
C1842       C  0.40572751  0.00629633  0.74164742     0.25000
C1843       C  0.40547772  0.00877706  0.76422355    -0.23000
C1844       C  0.39352522  0.02592506  0.77302322     0.19900
F1845       F  0.39216519  0.02868447  0.79467762    -0.12900
F1846       F  0.37127593  0.05654740  0.76932042    -0.15300
F1847       F  0.41730567  0.99019215  0.73248800    -0.15300
F1848       F  0.39560546  0.01848063  0.70657614    -0.12900
C1849       C  0.50795487  0.00658393  0.82550056     0.25100
C1850       C  0.49851140  0.99856483  0.80648960    -0.23000
C1851       C  0.51108300  0.99780173  0.78758164     0.20000
C1852       C  0.53247671  0.00493034  0.78767232     0.25000
C1853       C  0.54194780  0.01255238  0.80672730    -0.23000
C1854       C  0.52952992  0.01327034  0.82565550     0.19900
F1855       F  0.53808531  0.02108437  0.84419032    -0.12900
F1856       F  0.49644765  0.00772168  0.84406616    -0.15300
F1857       F  0.54409536  0.00397867  0.76915897    -0.15300
F1858       F  0.50270371  0.99020625  0.76888587    -0.12900
C1859       C  0.58965986  0.11704464  0.82055036     0.25100
C1860       C  0.57644608  0.09884201  0.81917985    -0.23000
C1861       C  0.55563007  0.09946177  0.82803645     0.20000
C1862       C  0.54886308  0.11718490  0.83999026     0.25000
C1863       C  0.56300525  0.13444390  0.84358957    -0.23000
C1864       C  0.58292317  0.13486087  0.83259240     0.19900
F1865       F  0.59675528  0.15155366  0.83511146    -0.12900
F1866       F  0.61000202  0.11660425  0.81246176    -0.15300
F1867       F  0.52903601  0.11673806  0.84925921    -0.15300
F1868       F  0.54247354  0.08209946  0.82653697    -0.12900
C1869       C  0.64193414  0.96541335  0.75061902     0.25100
C1870       C  0.65345663  0.97335478  0.73279624    -0.23000
C1871       C  0.65404168  0.99570526  0.72927252     0.20000
C1872       C  0.64382870  0.00979629  0.74377187     0.25000
C1873       C  0.63283176  0.00170396  0.76189948    -0.23000
C1874       C  0.63192026  0.97934641  0.76501004     0.19900
F1875       F  0.62106703  0.97076069  0.78195015    -0.12900
F1876       F  0.64002630  0.94394770  0.75407332    -0.15300
F1877       F  0.64528997  0.03130555  0.74046093    -0.15300
F1878       F  0.66496171  0.00394835  0.71222955    -0.12900
C1879       C  0.69840886  0.91335713  0.61742168     0.25100
C1880       C  0.70940100  0.91065682  0.63700767    -0.23000
C1881       C  0.72756705  0.89713428  0.63772875     0.20000
C1882       C  0.73337263  0.88482273  0.61993725     0.25000
C1883       C  0.72120536  0.88581695  0.60085145    -0.23000
C1884       C  0.70419372  0.90091494  0.59944234     0.19900
F1885       F  0.69227495  0.90269414  0.58118255    -0.12900
F1886       F  0.68105641  0.92664034  0.61616486    -0.15300
F1887       F  0.75014309  0.87091535  0.62199226    -0.15300
F1888       F  0.73907726  0.89488176  0.65621976    -0.12900
C1889       C  0.77548639  0.90939262  0.74034139     0.25100
C1890       C  0.79077248  0.92364828  0.73173170    -0.23000
C1891       C  0.78396994  0.93952542  0.71720929     0.20000
C1892       C  0.76224379  0.94102640  0.71114758     0.25000
C1893       C  0.74673157  0.92694748  0.71994262    -0.23000
C1894       C  0.75364027  0.91114664  0.73470824     0.19900
F1895       F  0.73925891  0.89754084  0.74395152    -0.12900
F1896       F  0.78160273  0.89421302  0.75481761    -0.15300
F1897       F  0.75651660  0.95610887  0.69640124    -0.15300
F1898       F  0.79849048  0.95337479  0.70858451    -0.12900
C1899       C  0.15191136  0.02619194  0.68563823     0.25100
C1900       C  0.13956854  0.00875288  0.69305261    -0.23000
C1901       C  0.13727764  0.00568283  0.71540890     0.20000
C1902       C  0.14614991  0.02051865  0.72999101     0.25000
C1903       C  0.15748206  0.03861102  0.72241443    -0.23000
C1904       C  0.16070388  0.04090689  0.70008059     0.19900
F1905       F  0.17247795  0.05745904  0.69204844    -0.12900
F1906       F  0.15554638  0.02908920  0.66425742    -0.15300
F1907       F  0.14299068  0.01756987  0.75141754    -0.15300
F1908       F  0.12576453  0.98883205  0.72314196    -0.12900
C1909       C  0.88505326  0.03061181  0.59385066     0.25100
C1910       C  0.89001719  0.04531959  0.61027817    -0.23000
C1911       C  0.87968134  0.06554065  0.61037893     0.20000
C1912       C  0.86644090  0.07169164  0.59316266     0.25000
C1913       C  0.86357592  0.05779672  0.57566060    -0.23000
C1914       C  0.87192727  0.03682643  0.57668785     0.19900
F1915       F  0.86878920  0.02293227  0.56011963    -0.12900
F1916       F  0.89397292  0.01067137  0.59365237    -0.15300
F1917       F  0.85861875  0.09206901  0.59238698    -0.15300
F1918       F  0.88405106  0.08017876  0.62596512    -0.12900
C1919       C  0.88809832  0.96143346  0.69814550     0.25100
C1920       C  0.88547526  0.96553095  0.72030916    -0.23000
C1921       C  0.89509085  0.98412737  0.72899200     0.20000
C1922       C  0.90672552  0.99839257  0.71575508     0.25000
C1923       C  0.90919292  0.99428210  0.69357977    -0.23000
C1924       C  0.89977580  0.97551781  0.68503344     0.19900
F1925       F  0.90151420  0.97079529  0.66375006    -0.12900
F1926       F  0.87913878  0.94381015  0.68889928    -0.15300
F1927       F  0.91588387  0.01601714  0.72474810    -0.15300
F1928       F  0.89362884  0.98833367  0.75038325    -0.12900
C1929       C  0.01564324  0.01112308  0.66989109     0.25100
C1930       C  0.00304968  0.01148323  0.65104208    -0.23000
C1931       C  0.01293589  0.00664182  0.63120461     0.20000
C1932       C  0.03481890  0.00107921  0.63031710     0.25000
C1933       C  0.04722901  0.00011455  0.64927900    -0.23000
C1934       C  0.03742651  0.00532949  0.66903124     0.19900
F1935       F  0.04896115  0.00483805  0.68761531    -0.12900
F1936       F  0.00684666  0.01610033  0.68928241    -0.15300
F1937       F  0.04361354  0.99592898  0.61096879    -0.15300
F1938       F  0.00152736  0.00762332  0.61255598    -0.12900
C1939       C  0.99640135  0.10706070  0.60777673     0.25100
C1940       C  0.98603749  0.12713766  0.60918700    -0.23000
C1941       C  0.96889892  0.12951678  0.62402633     0.20000
C1942       C  0.96095976  0.11172854  0.63546245     0.25000
C1943       C  0.96994553  0.09128739  0.63221360    -0.23000
C1944       C  0.98830002  0.08931567  0.61899136     0.19900
F1945       F  0.99792712  0.06988793  0.61622223    -0.12900
F1946       F  0.01365730  0.10420992  0.59461664    -0.15300
F1947       F  0.94339416  0.11419727  0.64827127    -0.15300
F1948       F  0.95893434  0.14878414  0.62658384    -0.12900
C1949       C  0.12506284  0.37096169  0.00520001     0.25100
C1950       C  0.14376614  0.37231102  0.01791962    -0.23000
C1951       C  0.14545468  0.35907672  0.03634806     0.20000
C1952       C  0.12794237  0.34644771  0.04301411     0.25000
C1953       C  0.10860214  0.34670593  0.03125185    -0.23000
C1954       C  0.10771408  0.35828107  0.01179232     0.19900
F1955       F  0.08943866  0.35830664  0.99972548    -0.12900
F1956       F  0.12303226  0.38277619  0.98691534    -0.15300
F1957       F  0.12922604  0.33566003  0.06198665    -0.15300
F1958       F  0.16343061  0.35950622  0.04883081    -0.12900
C1959       C  0.21156783  0.51335489  0.97195911     0.25100
C1960       C  0.19255192  0.52442532  0.96650438    -0.23000
C1961       C  0.17270703  0.51352544  0.96777815     0.20000
C1962       C  0.17186792  0.49213967  0.97481259     0.25000
C1963       C  0.19085153  0.48127475  0.98088666    -0.23000
C1964       C  0.21070764  0.49210960  0.97930075     0.19900
F1965       F  0.22940803  0.48209990  0.98474444    -0.12900
F1966       F  0.23103413  0.52320272  0.97055844    -0.15300
F1967       F  0.15239650  0.48227993  0.97616316    -0.15300
F1968       F  0.15412350  0.52339065  0.96169463    -0.12900
C1969       C  0.16343689  0.54331990  0.88228998     0.25100
C1970       C  0.17545751  0.56245450  0.88223110    -0.23000
C1971       C  0.17610179  0.57489876  0.86335691     0.20000
C1972       C  0.16354784  0.56909227  0.84542422     0.25000
C1973       C  0.15016572  0.55073871  0.84616892    -0.23000
C1974       C  0.15099832  0.53749431  0.86451197     0.19900
F1975       F  0.13880167  0.51945041  0.86585732    -0.12900
F1976       F  0.16280344  0.53073650  0.90016313    -0.15300
F1977       F  0.16347812  0.58219482  0.82792545    -0.15300
F1978       F  0.18729076  0.59361976  0.86291411    -0.12900
C1979       C  0.29811455  0.37877521  0.83128046     0.25100
C1980       C  0.30927004  0.38011431  0.85095262    -0.23000
C1981       C  0.32688535  0.39437037  0.85261722     0.20000
C1982       C  0.33420669  0.40567623  0.83455023     0.25000
C1983       C  0.32398850  0.40302449  0.81459754    -0.23000
C1984       C  0.30538809  0.39015166  0.81331363     0.19900
F1985       F  0.29466080  0.38793549  0.79436261    -0.12900
F1986       F  0.28072897  0.36572606  0.82907424    -0.15300
F1987       F  0.35232622  0.41777205  0.83619730    -0.15300
F1988       F  0.33799365  0.39634179  0.87134935    -0.12900
C1989       C  0.25322450  0.38188893  0.97878621     0.25100
C1990       C  0.23396692  0.39092566  0.97073773    -0.23000
C1991       C  0.22980323  0.38958859  0.94848967     0.20000
C1992       C  0.24429981  0.37945303  0.93469112     0.25000
C1993       C  0.26318328  0.36970183  0.94269381    -0.23000
C1994       C  0.26768150  0.37128726  0.96487992     0.19900
F1995       F  0.28569838  0.36207992  0.97322567    -0.12900
F1996       F  0.25779465  0.38276395  0.00014669    -0.15300
F1997       F  0.23972112  0.37931128  0.91329811    -0.15300
F1998       F  0.21153030  0.39804222  0.93984667    -0.12900
C1999       C  0.37770343  0.32146926  0.88152609     0.25100
C2000       C  0.35850058  0.30955803  0.88135709    -0.23000
C2001       C  0.35811737  0.28965279  0.87066790     0.20000
C2002       C  0.37605067  0.28237125  0.85920246     0.25000
C2003       C  0.39473160  0.29503901  0.85776571    -0.23000
C2004       C  0.39565229  0.31437359  0.86966819     0.19900
F2005       F  0.41330833  0.32720395  0.86865176    -0.12900
F2006       F  0.37849936  0.34083064  0.89154676    -0.15300
F2007       F  0.37464916  0.26335113  0.84861570    -0.15300
F2008       F  0.33990190  0.27760540  0.87046004    -0.12900
C2009       C  0.20618637  0.11294895  0.85702438     0.25100
C2010       C  0.22492486  0.12576939  0.85555035    -0.23000
C2011       C  0.23673471  0.12565951  0.83621582     0.20000
C2012       C  0.22919591  0.11428456  0.81837818     0.25000
C2013       C  0.20965547  0.10288359  0.81939093    -0.23000
C2014       C  0.19862759  0.10159212  0.83905565     0.19900
F2015       F  0.17959356  0.09092858  0.84039844    -0.12900
F2016       F  0.19426443  0.11258132  0.87535684    -0.15300
F2017       F  0.24057007  0.11517726  0.79969485    -0.15300
F2018       F  0.25505428  0.13739444  0.83414172    -0.12900
C2019       C  0.29018811  0.25810266  0.90331324     0.25100
C2020       C  0.27504494  0.27488349  0.90456472    -0.23000
C2021       C  0.25308186  0.27003884  0.90666062     0.20000
C2022       C  0.24639330  0.24861710  0.90798552     0.25000
C2023       C  0.26149122  0.23179307  0.90622386    -0.23000
C2024       C  0.28342973  0.23667738  0.90368174     0.19900
F2025       F  0.29831241  0.22075103  0.90186902    -0.12900
F2026       F  0.31149602  0.26252779  0.90111225    -0.15300
F2027       F  0.22505711  0.24425920  0.91021131    -0.15300
F2028       F  0.23819085  0.28601825  0.90773011    -0.12900
C2029       C  0.17855405  0.21581651  0.86965486     0.25100
C2030       C  0.17820169  0.19727323  0.88264138    -0.23000
C2031       C  0.15876957  0.18593122  0.88485417     0.20000
C2032       C  0.14042970  0.19215219  0.87308571     0.25000
C2033       C  0.14111362  0.21010432  0.85915745    -0.23000
C2034       C  0.16021854  0.22226329  0.85821924     0.19900
F2035       F  0.16156328  0.23995384  0.84548024    -0.12900
F2036       F  0.19695370  0.22742785  0.86747081    -0.15300
F2037       F  0.12236511  0.17996130  0.87460451    -0.15300
F2038       F  0.15795376  0.16790362  0.89714663    -0.12900
C2039       C  0.40884612  0.15871689  0.04612352     0.25100
C2040       C  0.42785884  0.15733607  0.03394899    -0.23000
C2041       C  0.42787133  0.14544413  0.01472570     0.20000
C2042       C  0.40973035  0.13382756  0.00855093     0.25000
C2043       C  0.39134415  0.13335151  0.02180360    -0.23000
C2044       C  0.39069670  0.14668497  0.04017960     0.19900
F2045       F  0.37313510  0.14697091  0.05323245    -0.12900
F2046       F  0.40849781  0.17000802  0.06481770    -0.15300
F2047       F  0.41075019  0.12198705  0.99021882    -0.15300
F2048       F  0.44597715  0.14403423  0.00248123    -0.12900
C2049       C  0.30712213  0.11944738  0.95388748     0.25100
C2050       C  0.30171227  0.11616239  0.97569206    -0.23000
C2051       C  0.28167785  0.12397611  0.98311853     0.20000
C2052       C  0.26754616  0.13493179  0.96904488     0.25000
C2053       C  0.27321353  0.13830201  0.94729669    -0.23000
C2054       C  0.29316511  0.13025434  0.93999787     0.19900
F2055       F  0.29937532  0.13267978  0.91915988    -0.12900
F2056       F  0.32611580  0.11222792  0.94570796    -0.15300
F2057       F  0.24853968  0.14250179  0.97680673    -0.15300
F2058       F  0.27583602  0.12125046  0.00400502    -0.12900
C2059       C  0.37625573  0.05512981  0.10690878     0.25100
C2060       C  0.39247277  0.03946804  0.10376467    -0.23000
C2061       C  0.39452034  0.02994184  0.08334638     0.20000
C2062       C  0.38231770  0.03749508  0.06601442     0.25000
C2063       C  0.36759880  0.05455872  0.06871838    -0.23000
C2064       C  0.36390874  0.06260306  0.08949264     0.19900
F2065       F  0.34977069  0.07897333  0.09263792    -0.12900
F2066       F  0.37320911  0.06420861  0.12654699    -0.15300
F2067       F  0.38574781  0.02880305  0.04624296    -0.15300
F2068       F  0.40931804  0.01424137  0.07971303    -0.12900
C2069       C  0.32727010  0.99391923  0.97224493     0.25100
C2070       C  0.34669378  0.98219186  0.97117610    -0.23000
C2071       C  0.36604695  0.99235065  0.97729338     0.20000
C2072       C  0.36594015  0.01377129  0.98414023     0.25000
C2073       C  0.34646673  0.02531300  0.98538095    -0.23000
C2074       C  0.32715487  0.01518121  0.97947428     0.19900
F2075       F  0.30814495  0.02600697  0.98036125    -0.12900
F2076       F  0.30827620  0.98481141  0.96641922    -0.15300
F2077       F  0.38481873  0.02300710  0.99020686    -0.15300
F2078       F  0.38516247  0.98170105  0.97641673    -0.12900
C2079       C  0.36907485  0.96764889  0.88280246     0.25100
C2080       C  0.36042748  0.94680595  0.88378106    -0.23000
C2081       C  0.36264153  0.93325763  0.86584244     0.20000
C2082       C  0.37559795  0.93952725  0.84835186     0.25000
C2083       C  0.38647183  0.95945910  0.84866041    -0.23000
C2084       C  0.38186516  0.97396021  0.86539709     0.19900
F2085       F  0.39078505  0.99386272  0.86561232    -0.12900
F2086       F  0.36640383  0.98143145  0.89954131    -0.15300
F2087       F  0.37886714  0.92536547  0.83205664    -0.15300
F2088       F  0.35421627  0.91314620  0.86622295    -0.12900
C2089       C  0.27350683  0.62932113  0.99198187     0.25100
C2090       C  0.26500116  0.63908404  0.01065650    -0.23000
C2091       C  0.24248552  0.63858057  0.01375566     0.20000
C2092       C  0.22898646  0.62808374  0.99916985     0.25000
C2093       C  0.23742038  0.61772481  0.98082530    -0.23000
C2094       C  0.25985237  0.61874970  0.97721553     0.19900
F2095       F  0.26867306  0.60907005  0.95972576    -0.12900
F2096       F  0.29505949  0.62957426  0.98820338    -0.15300
F2097       F  0.20744524  0.62818617  0.00315721    -0.15300
F2098       F  0.23326249  0.64830515  0.03103654    -0.12900
C2099       C  0.24317228  0.88538134  0.12256387     0.25100
C2100       C  0.23050129  0.88344784  0.10388328    -0.23000
C2101       C  0.21135757  0.89574472  0.10233552     0.20000
C2102       C  0.20413397  0.90806325  0.11987686     0.25000
C2103       C  0.21588275  0.90822648  0.13919384    -0.23000
C2104       C  0.23590699  0.89755844  0.14000395     0.19900
F2105       F  0.24796698  0.89793100  0.15827118    -0.12900
F2106       F  0.26208792  0.87452872  0.12452893    -0.15300
F2107       F  0.18474772  0.91816198  0.11862404    -0.15300
F2108       F  0.19882883  0.89475221  0.08443434    -0.12900
C2109       C  0.29993046  0.87388772  0.02038593     0.25100
C2110       C  0.27921108  0.86682423  0.01436050    -0.23000
C2111       C  0.27216306  0.87090905  0.99314465     0.20000
C2112       C  0.28548751  0.88188579  0.97842716     0.25000
C2113       C  0.30620127  0.88890871  0.98456033    -0.23000
C2114       C  0.31320570  0.88461629  0.00574962     0.19900
F2115       F  0.33304084  0.89085293  0.01257768    -0.12900
F2116       F  0.30754432  0.87054761  0.04063064    -0.15300
F2117       F  0.27812096  0.88549264  0.95816082    -0.15300
F2118       F  0.25242586  0.86420916  0.98654442    -0.12900
C2119       C  0.27648734  0.76463764  0.03934548     0.25100
C2120       C  0.26784036  0.77389441  0.05805040    -0.23000
C2121       C  0.26385434  0.76077741  0.07604814     0.20000
C2122       C  0.26830802  0.73870878  0.07531014     0.25000
C2123       C  0.27754727  0.72945825  0.05675896    -0.23000
C2124       C  0.28157395  0.74272699  0.03877986     0.19900
F2125       F  0.29044949  0.73454398  0.02055367    -0.12900
F2126       F  0.28038444  0.77691608  0.02169183    -0.15300
F2127       F  0.26375670  0.72650692  0.09286354    -0.15300
F2128       F  0.25493122  0.76921011  0.09413969    -0.12900
C2129       C  0.58848230  0.87478872  0.12181864     0.25100
C2130       C  0.56948264  0.87595462  0.10927694    -0.23000
C2131       C  0.55653677  0.89444351  0.11084522     0.20000
C2132       C  0.56323816  0.91196928  0.12312147     0.25000
C2133       C  0.58284777  0.91141480  0.13452144    -0.23000
C2134       C  0.59501797  0.89235207  0.13446878     0.19900
F2135       F  0.61409165  0.89133642  0.14516205    -0.12900
F2136       F  0.60147600  0.85723868  0.12081885    -0.15300
F2137       F  0.55088790  0.92997473  0.12304105    -0.15300
F2138       F  0.53775642  0.89605686  0.09970248    -0.12900
C2139       C  0.49082794  0.89862003  0.85674455     0.25100
C2140       C  0.48263912  0.87812941  0.85186585    -0.23000
C2141       C  0.46816946  0.87608051  0.83444070     0.20000
C2142       C  0.46084868  0.89429932  0.82323669     0.25000
C2143       C  0.46766952  0.91491087  0.82938462    -0.23000
C2144       C  0.48331312  0.91677990  0.84576302     0.19900
F2145       F  0.49083487  0.93636322  0.85177054    -0.12900
F2146       F  0.50509348  0.90137676  0.87310862    -0.15300
F2147       F  0.44597712  0.89185136  0.80739527    -0.15300
F2148       F  0.46036873  0.85652485  0.82877626    -0.12900
C2149       C  0.51656552  0.84645892  0.96961341     0.25100
C2150       C  0.51704300  0.82736861  0.95756906    -0.23000
C2151       C  0.52428869  0.80836874  0.96744384     0.20000
C2152       C  0.53117719  0.80851259  0.98896837     0.25000
C2153       C  0.53044351  0.82760773  0.00118547    -0.23000
C2154       C  0.52302679  0.84657130  0.99120852     0.19900
F2155       F  0.52228471  0.86539474  0.00221587    -0.12900
F2156       F  0.50910262  0.86494732  0.96066435    -0.15300
F2157       F  0.53852018  0.78992627  0.99780997    -0.15300
F2158       F  0.52512307  0.78974534  0.95610717    -0.12900
C2159       C  0.41227305  0.84705274  0.91519295     0.25100
C2160       C  0.43261946  0.85137771  0.92411967    -0.23000
C2161       C  0.43432233  0.86713737  0.94029221     0.20000
C2162       C  0.41652850  0.87956038  0.94611258     0.25000
C2163       C  0.39650066  0.87651473  0.93595859    -0.23000
C2164       C  0.39434190  0.85957244  0.92100708     0.19900
F2165       F  0.37514544  0.85570941  0.91124785    -0.12900
F2166       F  0.40999580  0.83172896  0.89982669    -0.15300
F2167       F  0.41931418  0.89532504  0.96095481    -0.15300
F2168       F  0.45354284  0.87119339  0.94996288    -0.12900
C2169       C  0.39779052  0.69731046  0.08393252     0.25100
C2170       C  0.39525514  0.71363998  0.09956195    -0.23000
C2171       C  0.37478847  0.72305761  0.10206250     0.20000
C2172       C  0.35688879  0.71465235  0.09135072     0.25000
C2173       C  0.35901442  0.69701502  0.07729053    -0.23000
C2174       C  0.37980000  0.68918157  0.07276189     0.19900
F2175       F  0.38254004  0.67270659  0.05871085    -0.12900
F2176       F  0.41748510  0.68854628  0.08010032    -0.15300
F2177       F  0.33720427  0.72334027  0.09545906    -0.15300
F2178       F  0.37172473  0.73964510  0.11591784    -0.12900
C2179       C  0.50539471  0.75306749  0.10636038     0.25100
C2180       C  0.48658694  0.76151545  0.11592137    -0.23000
C2181       C  0.48314057  0.78389822  0.11490571     0.20000
C2182       C  0.49794436  0.79738064  0.10458786     0.25000
C2183       C  0.51673564  0.78897274  0.09492173    -0.23000
C2184       C  0.52032477  0.76664254  0.09605393     0.19900
F2185       F  0.53804267  0.75781678  0.08675263    -0.12900
F2186       F  0.50918338  0.73159209  0.10657307    -0.15300
F2187       F  0.49381860  0.81882221  0.10426317    -0.15300
F2188       F  0.46540952  0.79296099  0.12402167    -0.12900
C2189       C  0.42759715  0.74582852  0.22197220     0.25100
C2190       C  0.44584595  0.74782508  0.20871191    -0.23000
C2191       C  0.46520757  0.75531363  0.21775824     0.20000
C2192       C  0.46604937  0.76150793  0.23947983     0.25000
C2193       C  0.44761524  0.75991622  0.25271774    -0.23000
C2194       C  0.42850547  0.75158077  0.24375632     0.19900
F2195       F  0.41048472  0.74928536  0.25594892    -0.12900
F2196       F  0.40895140  0.73769395  0.21395724    -0.15300
F2197       F  0.48492838  0.76910515  0.24749485    -0.15300
F2198       F  0.48319052  0.75716849  0.20542394    -0.12900
C2199       C  0.42681791  0.86311758  0.29634732     0.25100
C2200       C  0.42758759  0.84399468  0.28452116    -0.23000
C2201       C  0.41733973  0.84300429  0.26433240     0.20000
C2202       C  0.40511307  0.86036969  0.25681054     0.25000
C2203       C  0.40287386  0.87898163  0.26946885    -0.23000
C2204       C  0.41462061  0.88051115  0.28887999     0.19900
F2205       F  0.41291137  0.89814799  0.30161316    -0.12900
F2206       F  0.43601558  0.86421955  0.31615410    -0.15300
F2207       F  0.39466805  0.85852011  0.23767379    -0.15300
F2208       F  0.41835715  0.82477208  0.25235800    -0.12900
C2209       C  0.63404504  0.81904487  0.58739107     0.25100
C2210       C  0.63490422  0.79984562  0.59954393    -0.23000
C2211       C  0.65281273  0.78617511  0.59697127     0.20000
C2212       C  0.67031373  0.79249165  0.58429926     0.25000
C2213       C  0.67018079  0.81242968  0.57364197    -0.23000
C2214       C  0.65159356  0.82527024  0.57454815     0.19900
F2215       F  0.65128472  0.84481152  0.56481114    -0.12900
F2216       F  0.61697639  0.83262145  0.58914095    -0.15300
F2217       F  0.68799716  0.77960250  0.58339909    -0.15300
F2218       F  0.65393543  0.76712323  0.60757965    -0.12900
C2219       C  0.61028764  0.86629571  0.66280539     0.25100
C2220       C  0.61051079  0.84742500  0.67519930    -0.23000
C2221       C  0.62225248  0.84710757  0.69459535     0.20000
C2222       C  0.63469944  0.86476758  0.70078670     0.25000
C2223       C  0.63590440  0.88309454  0.68756042    -0.23000
C2224       C  0.62288577  0.88398708  0.66890006     0.19900
F2225       F  0.62349520  0.90133928  0.65565149    -0.12900
F2226       F  0.59951204  0.86692737  0.64377873    -0.15300
F2227       F  0.64636050  0.86345077  0.71925447    -0.15300
F2228       F  0.62245413  0.82921921  0.70714234    -0.12900
C2229       C  0.52542834  0.74973496  0.84206592     0.25100
C2230       C  0.54779578  0.74926635  0.84602828    -0.23000
C2231       C  0.55644624  0.76327683  0.86148853     0.20000
C2232       C  0.54345032  0.77829266  0.87182993     0.25000
C2233       C  0.52132219  0.77978258  0.86714060    -0.23000
C2234       C  0.51223120  0.76499604  0.85252622     0.19900
F2235       F  0.49096074  0.76608456  0.84745940    -0.12900
F2236       F  0.51660859  0.73632454  0.82726583    -0.15300
F2237       F  0.55272430  0.79162907  0.88642626    -0.15300
F2238       F  0.57777478  0.76267940  0.86647061    -0.12900
C2239       C  0.57027327  0.74763808  0.74022865     0.25100
C2240       C  0.58982370  0.74460966  0.75137559    -0.23000
C2241       C  0.60930857  0.74953821  0.74085979     0.20000
C2242       C  0.60928179  0.75702882  0.71959640     0.25000
C2243       C  0.58975438  0.76019294  0.70848919    -0.23000
C2244       C  0.57023438  0.75549396  0.71905576     0.19900
F2245       F  0.55108364  0.75817738  0.70878136    -0.12900
F2246       F  0.55113788  0.74327188  0.74990643    -0.15300
F2247       F  0.62841720  0.76170306  0.71007092    -0.15300
F2248       F  0.62851179  0.74668270  0.75098861    -0.12900
C2249       C  0.60800847  0.63735370  0.79776213     0.25100
C2250       C  0.60867314  0.65612773  0.78522737    -0.23000
C2251       C  0.62019709  0.65598448  0.76573546     0.20000
C2252       C  0.63243724  0.63814351  0.75980642     0.25000
C2253       C  0.63366524  0.62008954  0.77340049    -0.23000
C2254       C  0.62047749  0.61943498  0.79193407     0.19900
F2255       F  0.62072068  0.60209483  0.80521308    -0.12900
F2256       F  0.59697187  0.63703985  0.81664356    -0.15300
F2257       F  0.64419742  0.63921355  0.74139104    -0.15300
F2258       F  0.62067640  0.67371563  0.75297069    -0.12900
C2259       C  0.50473716  0.71510188  0.35221370     0.25100
C2260       C  0.52171262  0.72308501  0.36492765    -0.23000
C2261       C  0.52509218  0.74547359  0.36559420     0.20000
C2262       C  0.51090705  0.75955623  0.35474814     0.25000
C2263       C  0.49332664  0.75138004  0.34292785    -0.23000
C2264       C  0.49084224  0.72897642  0.34140434     0.19900
F2265       F  0.47479428  0.72026730  0.32936161    -0.12900
F2266       F  0.50142637  0.69363913  0.35013248    -0.15300
F2267       F  0.51388702  0.78108202  0.35650160    -0.15300
F2268       F  0.54159373  0.75375088  0.37728555    -0.12900
C2269       C  0.63259406  0.65860392  0.41560503     0.25100
C2270       C  0.61252268  0.65480129  0.42533386    -0.23000
C2271       C  0.61092856  0.63873092  0.44123796     0.20000
C2272       C  0.62860592  0.62578034  0.44629247     0.25000
C2273       C  0.64839959  0.62858087  0.43559526    -0.23000
C2274       C  0.65037144  0.64553255  0.42059638     0.19900
F2275       F  0.66923624  0.64896512  0.41006716    -0.12900
F2276       F  0.63467758  0.67397129  0.40022282    -0.15300
F2277       F  0.62591196  0.60980896  0.46095809    -0.15300
F2278       F  0.59190140  0.63492834  0.45139456    -0.12900
C2279       C  0.49166782  0.61089496  0.61260086     0.25100
C2280       C  0.47981681  0.63018137  0.61261606    -0.23000
C2281       C  0.46190562  0.63205500  0.62656009     0.20000
C2282       C  0.45460120  0.61423751  0.63827839     0.25000
C2283       C  0.46530056  0.59444824  0.63649565    -0.23000
C2284       C  0.48451389  0.59326230  0.62450684     0.19900
F2285       F  0.49570836  0.57451847  0.62327391    -0.12900
F2286       F  0.50936260  0.60851338  0.59993986    -0.15300
F2287       F  0.43594850  0.61581893  0.64962107    -0.15300
F2288       F  0.45050356  0.65066047  0.62773590    -0.12900
C2289       C  0.51155734  0.73756222  0.60877127     0.25100
C2290       C  0.52062555  0.72352797  0.59341884    -0.23000
C2291       C  0.54270427  0.72525286  0.58866453     0.20000
C2292       C  0.55565053  0.73997253  0.59948882     0.25000
C2293       C  0.54697671  0.75342762  0.61548736    -0.23000
C2294       C  0.52468042  0.75243008  0.61978419     0.19900
F2295       F  0.51584294  0.76494980  0.63535828    -0.12900
F2296       F  0.49032925  0.73611431  0.61391427    -0.15300
F2297       F  0.57690443  0.74097334  0.59429328    -0.15300
F2298       F  0.55191380  0.71255805  0.57343237    -0.12900
C2299       C  0.51598555  0.65754188  0.49089698     0.25100
C2300       C  0.51513737  0.67638366  0.50334981    -0.23000
C2301       C  0.52108034  0.69601860  0.49392676     0.20000
C2302       C  0.52784805  0.69686224  0.47246681     0.25000
C2303       C  0.52842145  0.67811506  0.45984228    -0.23000
C2304       C  0.52241068  0.65841211  0.46928066     0.19900
F2305       F  0.52320774  0.63988233  0.45776942    -0.12900
F2306       F  0.50995762  0.63837627  0.49943873    -0.15300
F2307       F  0.53370013  0.71610901  0.46401501    -0.15300
F2308       F  0.52067609  0.71441112  0.50565092    -0.12900
C2309       C  0.24144024  0.38999396  0.62032217     0.25100
C2310       C  0.23010638  0.39030110  0.60069669    -0.23000
C2311       C  0.21209631  0.40407962  0.59858341     0.20000
C2312       C  0.20455458  0.41579921  0.61634280     0.25000
C2313       C  0.21462898  0.41351804  0.63643679    -0.23000
C2314       C  0.23358254  0.40122178  0.63806443     0.19900
F2315       F  0.24390019  0.39910752  0.65725824    -0.12900
F2316       F  0.25929286  0.37758536  0.62291995    -0.15300
F2317       F  0.18630152  0.42772407  0.61438813    -0.15300
F2318       F  0.20083429  0.40506441  0.57985389    -0.12900
C2319       C  0.18786380  0.30269651  0.60565454     0.25100
C2320       C  0.18522539  0.31453598  0.58640437    -0.23000
C2321       C  0.16427474  0.31752840  0.57828598     0.20000
C2322       C  0.14632942  0.30980493  0.58965618     0.25000
C2323       C  0.14895388  0.29873053  0.60930557    -0.23000
C2324       C  0.16998130  0.29473483  0.61682371     0.19900
F2325       F  0.17331047  0.28404821  0.63562325    -0.12900
F2326       F  0.20778025  0.29912936  0.61406873    -0.15300
F2327       F  0.12632658  0.31357835  0.58160493    -0.15300
F2328       F  0.16103840  0.32870409  0.55978922    -0.12900
C2329       C  0.32680441  0.11461545  0.60806049     0.25100
C2330       C  0.30808373  0.12754510  0.60902605    -0.23000
C2331       C  0.29517208  0.12660898  0.62765719     0.20000
C2332       C  0.30164669  0.11429330  0.64540633     0.25000
C2333       C  0.32115352  0.10268967  0.64493277    -0.23000
C2334       C  0.33329585  0.10239192  0.62589360     0.19900
F2335       F  0.35250317  0.09190510  0.62522244    -0.12900
F2336       F  0.33972724  0.11489652  0.59042221    -0.15300
F2337       F  0.28926578  0.11443010  0.66345873    -0.15300
F2338       F  0.27675239  0.13835341  0.62913866    -0.12900
C2339       C  0.29055404  0.25245855  0.55902794     0.25100
C2340       C  0.27507740  0.23597347  0.55923099    -0.23000
C2341       C  0.25308848  0.24125565  0.55868370     0.20000
C2342       C  0.24666744  0.26278041  0.55717999     0.25000
C2343       C  0.26216766  0.27926742  0.55702293    -0.23000
C2344       C  0.28412144  0.27398844  0.55834303     0.19900
F2345       F  0.29931594  0.28966753  0.55856329    -0.12900
F2346       F  0.31191165  0.24767990  0.56003641    -0.15300
F2347       F  0.22529799  0.26758142  0.55654421    -0.15300
F2348       F  0.23790160  0.22558159  0.55914282    -0.12900
C2349       C  0.35567879  0.21662812  0.59836746     0.25100
C2350       C  0.35656694  0.20129941  0.58170992    -0.23000
C2351       C  0.37683103  0.19418379  0.57445959     0.20000
C2352       C  0.39572622  0.20094031  0.58491074     0.25000
C2353       C  0.39460586  0.21502160  0.60267634    -0.23000
C2354       C  0.37440833  0.22333194  0.60875070     0.19900
F2355       F  0.37246585  0.23686516  0.62578959    -0.12900
F2356       F  0.33649745  0.22460814  0.60531506    -0.15300
F2357       F  0.41498774  0.19297999  0.57821466    -0.15300
F2358       F  0.37831277  0.17972282  0.55817665    -0.12900
C2359       C  0.33046241  0.89636068  0.35532152     0.25100
C2360       C  0.31398622  0.88079338  0.35369420    -0.23000
C2361       C  0.30304543  0.87861180  0.33397134     0.20000
C2362       C  0.30988318  0.88993287  0.31582033     0.25000
C2363       C  0.32757839  0.90400667  0.31696208    -0.23000
C2364       C  0.33719923  0.90788764  0.33706098     0.19900
F2365       F  0.35420202  0.92149506  0.33871781    -0.12900
F2366       F  0.34089481  0.89961210  0.37425927    -0.15300
F2367       F  0.29971803  0.88635414  0.29677786    -0.15300
F2368       F  0.28641980  0.86461186  0.33181714    -0.12900
C2369       C  0.27820639  0.76159782  0.38306172     0.25100
C2370       C  0.28067415  0.77324435  0.40228450    -0.23000
C2371       C  0.27594604  0.76318210  0.42200603     0.20000
C2372       C  0.26836198  0.74203680  0.42246816     0.25000
C2373       C  0.26565403  0.73040911  0.40321676    -0.23000
C2374       C  0.27087409  0.74036529  0.38352153     0.19900
F2375       F  0.26835955  0.72977951  0.36458382    -0.12900
F2376       F  0.28330768  0.77060229  0.36379795    -0.15300
F2377       F  0.26370606  0.73296936  0.44180759    -0.15300
F2378       F  0.27824232  0.77396298  0.44087192    -0.12900
C2379       C  0.36629855  0.78770505  0.37685158     0.25100
C2380       C  0.36613301  0.80737963  0.38795497    -0.23000
C2381       C  0.38515061  0.81948248  0.38900213     0.20000
C2382       C  0.40310482  0.81350074  0.37658774     0.25000
C2383       C  0.40219565  0.79524558  0.36308825    -0.23000
C2384       C  0.38411689  0.78169710  0.36449982     0.19900
F2385       F  0.38301685  0.76328874  0.35284375    -0.12900
F2386       F  0.34854613  0.77493933  0.37680814    -0.15300
F2387       F  0.42068580  0.82645608  0.37661710    -0.15300
F2388       F  0.38565716  0.83813070  0.40031195    -0.12900
C2389       C  0.12872848  0.15907897  0.41844308     0.25100
C2390       C  0.10775509  0.15431331  0.42544739    -0.23000
C2391       C  0.10501571  0.13983877  0.44268062     0.20000
C2392       C  0.12257506  0.12851486  0.45107105     0.25000
C2393       C  0.14331217  0.13142709  0.44240780    -0.23000
C2394       C  0.14639579  0.14768185  0.42681822     0.19900
F2395       F  0.16635225  0.15184246  0.41886737    -0.12900
F2396       F  0.13201036  0.17362097  0.40247889    -0.15300
F2397       F  0.11894369  0.11374110  0.46675537    -0.15300
F2398       F  0.08509240  0.13597443  0.45090138    -0.12900
C2399       C  0.24067378  0.13716353  0.52390464     0.25100
C2400       C  0.26146597  0.14343217  0.51727925    -0.23000
C2401       C  0.26795228  0.13858846  0.49604462     0.20000
C2402       C  0.25410502  0.12723843  0.48206491     0.25000
C2403       C  0.23357041  0.12045859  0.48911460    -0.23000
C2404       C  0.22702841  0.12594780  0.51012393     0.19900
F2405       F  0.20723014  0.12044010  0.51765374    -0.12900
F2406       F  0.23332683  0.14167027  0.54400641    -0.15300
F2407       F  0.26078962  0.12295832  0.46169818    -0.15300
F2408       F  0.28757811  0.14490047  0.48874162    -0.12900
C2409       C  0.17288458  0.07015826  0.37547589     0.25100
C2410       C  0.17281466  0.05836280  0.39473604    -0.23000
C2411       C  0.16225408  0.03840253  0.39536797     0.20000
C2412       C  0.15090098  0.03088717  0.37748352     0.25000
C2413       C  0.14934628  0.04346823  0.35872011    -0.23000
C2414       C  0.16112688  0.06286173  0.35761529     0.19900
F2415       F  0.16017530  0.07550994  0.33981000    -0.12900
F2416       F  0.18265355  0.08964126  0.37456640    -0.15300
F2417       F  0.14047343  0.01178686  0.37902785    -0.15300
F2418       F  0.16207930  0.02656977  0.41376031    -0.12900
C2419       C  0.22976558  0.86954895  0.45668320     0.25100
C2420       C  0.23723844  0.88125133  0.47457105    -0.23000
C2421       C  0.25949471  0.88114663  0.47913654     0.20000
C2422       C  0.27407458  0.87082975  0.46521283     0.25000
C2423       C  0.26662792  0.86045036  0.44650553    -0.23000
C2424       C  0.24423232  0.85929796  0.44286579     0.19900
F2425       F  0.23617456  0.84829419  0.42578524    -0.12900
F2426       F  0.20833855  0.86806669  0.45237973    -0.15300
F2427       F  0.29548662  0.87166368  0.46966146    -0.15300
F2428       F  0.26726478  0.89172412  0.49657998    -0.12900
C2429       C  0.17657221  0.99064155  0.48575236     0.25100
C2430       C  0.19615771  0.97921050  0.48506349    -0.23000
C2431       C  0.21536547  0.99052951  0.48114519     0.20000
C2432       C  0.21485727  0.01269471  0.47705844     0.25000
C2433       C  0.19517495  0.02407327  0.47729659    -0.23000
C2434       C  0.17610581  0.01284096  0.48219625     0.19900
F2435       F  0.15684110  0.02320473  0.48311642    -0.12900
F2436       F  0.15785300  0.98041991  0.49058476    -0.15300
F2437       F  0.23368038  0.02304121  0.47300004    -0.15300
F2438       F  0.23461808  0.98010066  0.48096294    -0.12900
C2439       C  0.15434441  0.97331434  0.58268141     0.25100
C2440       C  0.15529862  0.96220589  0.60238116    -0.23000
C2441       C  0.17003201  0.94497505  0.60447330     0.20000
C2442       C  0.18150177  0.93743287  0.58648633     0.25000
C2443       C  0.17846021  0.94710044  0.56627455    -0.23000
C2444       C  0.16576519  0.96582807  0.56485758     0.19900
F2445       F  0.16334826  0.97624855  0.54576543    -0.12900
F2446       F  0.14124427  0.99063732  0.58013857    -0.15300
F2447       F  0.19406161  0.91965349  0.58848238    -0.15300
F2448       F  0.17241474  0.93459264  0.62356412    -0.12900
C2449       C  0.41260243  0.36696087  0.45122711     0.25100
C2450       C  0.39654406  0.37211181  0.43605140    -0.23000
C2451       C  0.39716925  0.36211530  0.41568009     0.20000
C2452       C  0.41440841  0.34869208  0.41002536     0.25000
C2453       C  0.43136865  0.34510468  0.42454669    -0.23000
C2454       C  0.42986789  0.35359052  0.44550514     0.19900
F2455       F  0.44579187  0.34988875  0.46008077    -0.12900
F2456       F  0.41211923  0.37557895  0.47130602    -0.15300
F2457       F  0.41568268  0.34117254  0.38954715    -0.15300
F2458       F  0.38211590  0.36677252  0.40049140    -0.12900
C2459       C  0.29835813  0.37656931  0.51920381     0.25100
C2460       C  0.27757698  0.37042007  0.51236669    -0.23000
C2461       C  0.27157886  0.37478001  0.49087544     0.20000
C2462       C  0.28621731  0.38468536  0.47657845     0.25000
C2463       C  0.30702745  0.39059425  0.48357621    -0.23000
C2464       C  0.31273256  0.38647817  0.50514105     0.19900
F2465       F  0.33236354  0.39218086  0.51296835    -0.12900
F2466       F  0.30501271  0.37319627  0.53977564    -0.15300
F2467       F  0.28005227  0.38835735  0.45592252    -0.15300
F2468       F  0.25167289  0.36937513  0.48362223    -0.12900
C2469       C  0.41451960  0.62719733  0.51270838     0.25100
C2470       C  0.39453935  0.62997803  0.52306644    -0.23000
C2471       C  0.39272087  0.64575878  0.53930597     0.20000
C2472       C  0.41081260  0.65763970  0.54574722     0.25000
C2473       C  0.43099142  0.65373941  0.53627356    -0.23000
C2474       C  0.43249348  0.63892425  0.51923826     0.19900
F2475       F  0.45167954  0.63512092  0.50937488    -0.12900
F2476       F  0.41709114  0.61224815  0.49699624    -0.15300
F2477       F  0.40893156  0.67172280  0.56232566    -0.15300
F2478       F  0.37376789  0.64894187  0.54978523    -0.12900
C2479       C  0.30912823  0.62195439  0.45294132     0.25100
C2480       C  0.30276201  0.61689283  0.47413703    -0.23000
C2481       C  0.28183866  0.62264761  0.48085629     0.20000
C2482       C  0.26765308  0.63321687  0.46671494     0.25000
C2483       C  0.27411614  0.63833888  0.44558959    -0.23000
C2484       C  0.29500761  0.63237292  0.43886655     0.19900
F2485       F  0.30202617  0.63665883  0.41858637    -0.12900
F2486       F  0.32915698  0.61689360  0.44563505    -0.15300
F2487       F  0.24758884  0.63839679  0.47374320    -0.15300
F2488       F  0.27509308  0.61821511  0.50116335    -0.12900
C2489       C  0.32855359  0.51097521  0.48805404     0.25100
C2490       C  0.34727424  0.52367031  0.48914622    -0.23000
C2491       C  0.36733549  0.51420664  0.48424330     0.20000
C2492       C  0.36856620  0.49272090  0.47774023     0.25000
C2493       C  0.34974347  0.48032073  0.47578569    -0.23000
C2494       C  0.32976891  0.48956979  0.48127532     0.19900
F2495       F  0.31136200  0.47784306  0.48012820    -0.12900
F2496       F  0.30897256  0.51935493  0.49313245    -0.15300
F2497       F  0.38811938  0.48433361  0.47256611    -0.15300
F2498       F  0.38587050  0.52566382  0.48597050    -0.12900
C2499       C  0.36860008  0.54102877  0.57484210     0.25100
C2500       C  0.36117276  0.56227991  0.57300138    -0.23000
C2501       C  0.36585853  0.57709611  0.58930913     0.20000
C2502       C  0.37902134  0.57108328  0.60660402     0.25000
C2503       C  0.38766754  0.55014026  0.60773950    -0.23000
C2504       C  0.38175850  0.53498005  0.59205774     0.19900
F2505       F  0.38953506  0.51458249  0.59278999    -0.12900
F2506       F  0.36427564  0.52650656  0.55910873    -0.15300
F2507       F  0.38490460  0.58632026  0.62108292    -0.15300
F2508       F  0.35978016  0.59796812  0.58723759    -0.12900
C2509       C  0.15805410  0.68996842  0.38935704     0.25100
C2510       C  0.17796778  0.70038687  0.38703132    -0.23000
C2511       C  0.17906567  0.71922925  0.37457717     0.20000
C2512       C  0.16106522  0.72661986  0.36325083     0.25000
C2513       C  0.14156714  0.71511679  0.36381647    -0.23000
C2514       C  0.13997249  0.69720959  0.37776955     0.19900
F2515       F  0.12140992  0.68575312  0.37908222    -0.12900
F2516       F  0.15658155  0.67166793  0.40118363    -0.15300
F2517       F  0.16321285  0.74433906  0.35067512    -0.15300
F2518       F  0.19803732  0.72989581  0.37240175    -0.12900
C2519       C  0.14813358  0.80598095  0.08645460     0.25100
C2520       C  0.15044257  0.78856803  0.10092449    -0.23000
C2521       C  0.17064263  0.77835042  0.10247634     0.20000
C2522       C  0.18838835  0.78634622  0.09115454     0.25000
C2523       C  0.18641864  0.80478785  0.07814903    -0.23000
C2524       C  0.16600812  0.81407534  0.07526931     0.19900
F2525       F  0.16368835  0.83211310  0.06317259    -0.12900
F2526       F  0.12889835  0.81618305  0.08417174    -0.15300
F2527       F  0.20783095  0.77656844  0.09366924    -0.15300
F2528       F  0.17362478  0.76135299  0.11587873    -0.12900
C2529       C  0.09756733  0.73659123  0.21592574     0.25100
C2530       C  0.09714128  0.75829250  0.20978108    -0.23000
C2531       C  0.09498728  0.77421288  0.22577408     0.20000
C2532       C  0.09376748  0.76851318  0.24759396     0.25000
C2533       C  0.09409546  0.74679393  0.25365812    -0.23000
C2534       C  0.09562164  0.73089215  0.23765745     0.19900
F2535       F  0.09584979  0.70977964  0.24319779    -0.12900
F2536       F  0.09945465  0.72089598  0.20088298    -0.15300
F2537       F  0.09183009  0.78414187  0.26271720    -0.15300
F2538       F  0.09474432  0.79534162  0.22028996    -0.12900
C2539       C  0.13958795  0.83592809  0.18983488     0.25100
C2540       C  0.12511511  0.83682107  0.17237140    -0.23000
C2541       C  0.12022539  0.85687771  0.16317933     0.20000
C2542       C  0.13058405  0.87551710  0.17050476     0.25000
C2543       C  0.14590694  0.87443164  0.18729145    -0.23000
C2544       C  0.14973448  0.85448989  0.19729361     0.19900
F2545       F  0.16404876  0.85265630  0.21375326    -0.12900
F2546       F  0.14435151  0.81691616  0.19950499    -0.15300
F2547       F  0.12625208  0.89444705  0.16051158    -0.15300
F2548       F  0.10641968  0.85830462  0.14626757    -0.12900
C2549       C  0.03745025  0.75319923  0.10668026     0.25100
C2550       C  0.05519302  0.74426785  0.11782492    -0.23000
C2551       C  0.05698730  0.72174448  0.11886795     0.20000
C2552       C  0.04209842  0.70853620  0.10852775     0.25000
C2553       C  0.02496598  0.71727126  0.09645995    -0.23000
C2554       C  0.02246079  0.73980095  0.09605222     0.19900
F2555       F  0.00603934  0.74888601  0.08479402    -0.12900
F2556       F  0.03499686  0.77484062  0.10544008    -0.15300
F2557       F  0.04454277  0.68693012  0.11044881    -0.15300
F2558       F  0.07329462  0.71224547  0.12997870    -0.12900
C2559       C  0.08379824  0.61761211  0.81986021     0.25100
C2560       C  0.07347369  0.59767938  0.82165269    -0.23000
C2561       C  0.05539621  0.59575639  0.83521790     0.20000
C2562       C  0.04893142  0.61288230  0.84823653     0.25000
C2563       C  0.06062123  0.63222695  0.84815825    -0.23000
C2564       C  0.07747926  0.63476396  0.83305668     0.19900
F2565       F  0.08891460  0.65331052  0.83207240    -0.12900
F2566       F  0.10126573  0.61991425  0.80688625    -0.15300
F2567       F  0.03192490  0.61004808  0.86171091    -0.15300
F2568       F  0.04464569  0.57681043  0.83672865    -0.12900
C2569       C  0.00312490  0.66739387  0.98586435     0.25100
C2570       C  0.01560755  0.67643197  0.00233950    -0.23000
C2571       C  0.03523779  0.68634055  0.99733658     0.20000
C2572       C  0.04244334  0.68700916  0.97596415     0.25000
C2573       C  0.02999959  0.67778899  0.95934915    -0.23000
C2574       C  0.01017056  0.66815759  0.96450656     0.19900
F2575       F  0.99735004  0.65994127  0.94882983    -0.12900
F2576       F  0.98400083  0.65789639  0.99051434    -0.15300
F2577       F  0.06178373  0.69624540  0.97161871    -0.15300
F2578       F  0.04736953  0.69534842  0.01312269    -0.12900
C2579       C  0.14979765  0.64622857  0.91341084     0.25100
C2580       C  0.14998229  0.63515654  0.93326395    -0.23000
C2581       C  0.13295832  0.63853341  0.94784913     0.20000
C2582       C  0.11517784  0.65098624  0.94184763     0.25000
C2583       C  0.11410463  0.66019785  0.92122006    -0.23000
C2584       C  0.13189615  0.65860045  0.90741132     0.19900
F2585       F  0.13100702  0.66708043  0.88727366    -0.12900
F2586       F  0.16603658  0.64361098  0.89898025    -0.15300
F2587       F  0.09837119  0.65306880  0.95572946    -0.15300
F2588       F  0.13296438  0.62891381  0.96748623    -0.12900
C2589       C  0.87582095  0.72545685  0.60155596     0.25100
C2590       C  0.89377125  0.71165381  0.60300693    -0.23000
C2591       C  0.89414311  0.69298482  0.59006335     0.20000
C2592       C  0.87631345  0.68753312  0.57725440     0.25000
C2593       C  0.85781760  0.70056341  0.57720087    -0.23000
C2594       C  0.85807892  0.71996321  0.58880138     0.19900
F2595       F  0.84063578  0.73319873  0.58857489    -0.12900
F2596       F  0.87492699  0.74385493  0.61324908    -0.15300
F2597       F  0.87638659  0.66855296  0.56649228    -0.15300
F2598       F  0.91112850  0.67921075  0.59082218    -0.12900
C2599       C  0.91493357  0.66171517  0.69612591     0.25100
C2600       C  0.92512088  0.66178021  0.67589996    -0.23000
C2601       C  0.92410567  0.64327282  0.66304501     0.20000
C2602       C  0.91116881  0.62586801  0.66936994     0.25000
C2603       C  0.89897510  0.62686900  0.68858149    -0.23000
C2604       C  0.90201532  0.64446352  0.70242920     0.19900
F2605       F  0.89156128  0.64559172  0.72160388    -0.12900
F2606       F  0.91635473  0.67911304  0.70923627    -0.15300
F2607       F  0.90931590  0.60882864  0.65586673    -0.15300
F2608       F  0.93379623  0.64288288  0.64343928    -0.12900
C2609       C  0.01040212  0.75620798  0.84956712     0.25100
C2610       C  0.98816824  0.75170003  0.84816451    -0.23000
C2611       C  0.98023081  0.73321159  0.85855377     0.20000
C2612       C  0.99405612  0.71932618  0.86947659     0.25000
C2613       C  0.01642278  0.72313445  0.87004119    -0.23000
C2614       C  0.02444695  0.74195363  0.86028714     0.19900
F2615       F  0.04586795  0.74639244  0.86076533    -0.12900
F2616       F  0.01864491  0.77410227  0.84019510    -0.15300
F2617       F  0.98531147  0.70198472  0.87947654    -0.15300
F2618       F  0.95887864  0.72839093  0.85828306    -0.12900
C2619       C  0.96107037  0.75299156  0.74543939     0.25100
C2620       C  0.94255069  0.76197244  0.75483237    -0.23000
C2621       C  0.92378028  0.76411258  0.74225968     0.20000
C2622       C  0.92353313  0.75726429  0.72070336     0.25000
C2623       C  0.94201192  0.74784934  0.71134562    -0.23000
C2624       C  0.96073455  0.74570451  0.72410729     0.19900
F2625       F  0.97884885  0.73646392  0.71602995    -0.12900
F2626       F  0.97950064  0.75092110  0.75707454    -0.15300
F2627       F  0.90513086  0.75974991  0.70910500    -0.15300
F2628       F  0.90588307  0.77357141  0.75060667    -0.12900
C2629       C  0.91873659  0.84482696  0.76599196     0.25100
C2630       C  0.92792599  0.84613245  0.78664236    -0.23000
C2631       C  0.92604233  0.86527538  0.79833985     0.20000
C2632       C  0.91333576  0.88215031  0.79035208     0.25000
C2633       C  0.90235800  0.88003988  0.77050389    -0.23000
C2634       C  0.90620525  0.86167886  0.75789775     0.19900
F2635       F  0.89687224  0.85944780  0.73824890    -0.12900
F2636       F  0.92078417  0.82655729  0.75421036    -0.15300
F2637       F  0.91040668  0.89976372  0.80290492    -0.15300
F2638       F  0.93457210  0.86678783  0.81842308    -0.12900
C2639       C  0.97904258  0.89679272  0.36385985     0.25100
C2640       C  0.97081334  0.87644880  0.35861488    -0.23000
C2641       C  0.95738175  0.87447669  0.34033970     0.20000
C2642       C  0.95119037  0.89275837  0.32850789     0.25000
C2643       C  0.95839082  0.91322046  0.33475727    -0.23000
C2644       C  0.97299816  0.91486536  0.35206000     0.19900
F2645       F  0.98099541  0.93423747  0.35814218    -0.12900
F2646       F  0.99211509  0.89953882  0.38118451    -0.15300
F2647       F  0.93722094  0.89056181  0.31182317    -0.15300
F2648       F  0.94966938  0.85498931  0.33431334    -0.12900
C2649       C  0.03627370  0.79516245  0.35636194     0.25100
C2650       C  0.01717968  0.78640643  0.36495696    -0.23000
C2651       C  0.01264523  0.76459535  0.36098231     0.20000
C2652       C  0.02770810  0.75149719  0.35017045     0.25000
C2653       C  0.04751997  0.76000830  0.34301836    -0.23000
C2654       C  0.05116636  0.78221160  0.34559618     0.19900
F2655       F  0.06931778  0.79161283  0.33780746    -0.12900
F2656       F  0.04076709  0.81642027  0.35842079    -0.15300
F2657       F  0.02303557  0.73044211  0.34707832    -0.15300
F2658       F  0.99385857  0.75581699  0.36788841    -0.12900
C2659       C  0.90150878  0.84358334  0.41239024     0.25100
C2660       C  0.91917067  0.84117682  0.42633988    -0.23000
C2661       C  0.91841347  0.85084554  0.44677711     0.20000
C2662       C  0.90147113  0.86454389  0.45233234     0.25000
C2663       C  0.88485707  0.86886725  0.43752663    -0.23000
C2664       C  0.88443286  0.85736267  0.41792964     0.19900
F2665       F  0.86844515  0.86072119  0.40335797    -0.12900
F2666       F  0.90184219  0.83449348  0.39252640    -0.15300
F2667       F  0.90210448  0.87457842  0.47172893    -0.15300
F2668       F  0.93504953  0.84832578  0.46079811    -0.12900
C2669       C  0.05785519  0.91582963  0.62408350     0.25100
C2670       C  0.07723234  0.91464580  0.63580374    -0.23000
C2671       C  0.08733622  0.89462649  0.63836475     0.20000
C2672       C  0.07973042  0.87667305  0.62697170     0.25000
C2673       C  0.06170365  0.87850324  0.61311217    -0.23000
C2674       C  0.05014768  0.89798232  0.61287371     0.19900
F2675       F  0.03211793  0.90028597  0.60067758    -0.12900
F2676       F  0.04698922  0.93474341  0.62246465    -0.15300
F2677       F  0.09092476  0.85796670  0.62839856    -0.15300
F2678       F  0.10561527  0.89286012  0.65028416    -0.12900
C2679       C  0.02218679  0.76910039  0.60794597     0.25100
C2680       C  0.01406403  0.78689017  0.59642164    -0.23000
C2681       C  0.99154656  0.78936700  0.59475093     0.20000
C2682       C  0.97753620  0.77508205  0.60492964     0.25000
C2683       C  0.98547868  0.75762159  0.61702739    -0.23000
C2684       C  0.00800960  0.75450153  0.61804113     0.19900
F2685       F  0.01635574  0.73771234  0.62925923    -0.12900
F2686       F  0.04378895  0.76618912  0.61001504    -0.15300
F2687       F  0.95599379  0.77841816  0.60273809    -0.15300
F2688       F  0.98286027  0.80564478  0.58299845    -0.12900
C2689       C  0.00886398  0.84466754  0.47358766     0.25100
C2690       C  0.00672102  0.82484925  0.46289721    -0.23000
C2691       C  0.01198519  0.80587307  0.47413575     0.20000
C2692       C  0.01989729  0.80684938  0.49535979     0.25000
C2693       C  0.02209648  0.82677696  0.50593318    -0.23000
C2694       C  0.01627373  0.84559993  0.49483183     0.19900
F2695       F  0.01832540  0.86512456  0.50432988    -0.12900
F2696       F  0.00332749  0.86329735  0.46361469    -0.15300
F2697       F  0.02516993  0.78829229  0.50562351    -0.15300
F2698       F  0.00984605  0.78642210  0.46449701    -0.12900
C2699       C  0.12729425  0.84797394  0.54314232     0.25100
C2700       C  0.10662449  0.85326116  0.53553114    -0.23000
C2701       C  0.10469137  0.86842265  0.51874440     0.20000
C2702       C  0.12283318  0.87916067  0.51082589     0.25000
C2703       C  0.14337089  0.87505016  0.51955368    -0.23000
C2704       C  0.14549886  0.85873090  0.53521377     0.19900
F2705       F  0.16512493  0.85370302  0.54351866    -0.12900
F2706       F  0.12980556  0.83340913  0.55923152    -0.15300
F2707       F  0.12002426  0.89440359  0.49540712    -0.15300
F2708       F  0.08506535  0.87340154  0.51036612    -0.12900
C2709       C  0.14702668  0.64994276  0.26687543     0.25100
C2710       C  0.14277067  0.62967169  0.27599013    -0.23000
C2711       C  0.12633636  0.62812914  0.29168769     0.20000
C2712       C  0.11506168  0.64653532  0.29857778     0.25000
C2713       C  0.12020175  0.66689044  0.29019757    -0.23000
C2714       C  0.13601225  0.66825692  0.27394616     0.19900
F2715       F  0.14123032  0.68751239  0.26507412    -0.12900
F2716       F  0.16262096  0.65234906  0.25171841     0.03900
F2717       F  0.09994865  0.64457140  0.31426770    -0.15300
F2718       F  0.12160477  0.60894337  0.30094116    -0.12900
C2719       C  0.23171939  0.60807515  0.32369196     0.25100
C2720       C  0.21218685  0.59663261  0.32410165    -0.23000
C2721       C  0.19975375  0.59670117  0.34300418     0.20000
C2722       C  0.20575516  0.60976607  0.36043815     0.25000
C2723       C  0.22441001  0.62271257  0.35917160    -0.23000
C2724       C  0.23782372  0.62084126  0.34103655     0.19900
F2725       F  0.25638620  0.63227992  0.33948664    -0.12900
F2726       F  0.24435699  0.60798259  0.30582017    -0.15300
F2727       F  0.19252655  0.61083113  0.37783224    -0.15300
F2728       F  0.18085699  0.58575250  0.34386535    -0.12900
C2729       C  0.39612374  0.65025480  0.19964739     0.25100
C2730       C  0.39769974  0.63063351  0.18852125    -0.23000
C2731       C  0.41283134  0.62888750  0.17159070     0.20000
C2732       C  0.42478722  0.64684433  0.16490334     0.25000
C2733       C  0.42166277  0.66685401  0.17484594    -0.23000
C2734       C  0.40786401  0.66814733  0.19281427     0.19900
F2735       F  0.40510136  0.68705751  0.20337114    -0.12900
F2736       F  0.38243422  0.65253030  0.21656644    -0.15300
F2737       F  0.43812977  0.64502938  0.14767110    -0.15300
F2738       F  0.41528933  0.61013518  0.16071174    -0.12900
C2739       C  0.28112641  0.55992608  0.22982392     0.25100
C2740       C  0.29203577  0.57955187  0.22697138    -0.23000
C2741       C  0.28085159  0.59884654  0.23098231     0.20000
C2742       C  0.25918692  0.59854799  0.23732178     0.25000
C2743       C  0.24825959  0.57895242  0.24010494    -0.23000
C2744       C  0.25953209  0.55963227  0.23653861     0.19900
F2745       F  0.24954724  0.54041782  0.23919010    -0.12900
F2746       F  0.29138471  0.54096710  0.22626602    -0.15300
F2747       F  0.24905734  0.61750416  0.24124343    -0.15300
F2748       F  0.29069094  0.61812372  0.22822971    -0.12900
C2749       C  0.30468331  0.60921729  0.14151367     0.25100
C2750       C  0.32357163  0.59666905  0.14078669    -0.23000
C2751       C  0.33411360  0.59389656  0.12097565     0.20000
C2752       C  0.32723262  0.60544054  0.10276024     0.25000
C2753       C  0.30967292  0.61989487  0.10414839    -0.23000
C2754       C  0.29781031  0.62070989  0.12344393     0.19900
F2755       F  0.28030979  0.63371220  0.12536766    -0.12900
F2756       F  0.29352007  0.61139521  0.16021588    -0.15300
F2757       F  0.33873199  0.60358805  0.08425193    -0.15300
F2758       F  0.35219439  0.58163102  0.11968735    -0.12900
C2759       C  0.15234181  0.47437094  0.08561009     0.25100
C2760       C  0.15275815  0.46171684  0.10438501    -0.23000
C2761       C  0.16583149  0.44313335  0.10483492     0.20000
C2762       C  0.17642858  0.43619760  0.08620150     0.25000
C2763       C  0.17416159  0.44777140  0.06696378    -0.23000
C2764       C  0.16284506  0.46735837  0.06703124     0.19900
F2765       F  0.16098006  0.47915272  0.04869878    -0.12900
F2766       F  0.14070106  0.49285779  0.08474933    -0.15300
F2767       F  0.18702220  0.41709100  0.08644723    -0.15300
F2768       F  0.16698616  0.43067202  0.12275736    -0.12900
C2769       C  0.14479962  0.52642525  0.18973721     0.25100
C2770       C  0.13835991  0.50570129  0.19620382    -0.23000
C2771       C  0.14282798  0.49918212  0.21750413     0.20000
C2772       C  0.15260678  0.51346639  0.23218638     0.25000
C2773       C  0.15806600  0.53455421  0.22583596    -0.23000
C2774       C  0.15441461  0.54055119  0.20424551     0.19900
F2775       F  0.16018607  0.56026766  0.19687207    -0.12900
F2776       F  0.14184309  0.53328317  0.16916902    -0.15300
F2777       F  0.15661256  0.50665861  0.25256789    -0.15300
F2778       F  0.13763434  0.47908090  0.22419504    -0.12900
C2779       C  0.06016195  0.41282751  0.11904867     0.25100
C2780       C  0.07997070  0.41177502  0.13008501    -0.23000
C2781       C  0.09175648  0.39250201  0.12976241     0.20000
C2782       C  0.08441328  0.37496298  0.11761427     0.25000
C2783       C  0.06506022  0.37641121  0.10568702    -0.23000
C2784       C  0.05272860  0.39533982  0.10710660     0.19900
F2785       F  0.03383180  0.39733963  0.09621805    -0.12900
F2786       F  0.04828732  0.43119065  0.11916025    -0.15300
F2787       F  0.09698059  0.35711391  0.11645050    -0.15300
F2788       F  0.11122981  0.39123413  0.13967913    -0.12900
C2789       C  0.01141351  0.50161220  0.17125794     0.25100
C2790       C  0.00059225  0.50354386  0.15140505    -0.23000
C2791       C  0.01207999  0.49978433  0.13223793     0.20000
C2792       C  0.03404337  0.49479021  0.13287804     0.25000
C2793       C  0.04489692  0.49307551  0.15269434    -0.23000
C2794       C  0.03335229  0.49630418  0.17189367     0.19900
F2795       F  0.04340835  0.49479509  0.19126536    -0.12900
F2796       F  0.00075897  0.50483442  0.19008555    -0.15300
F2797       F  0.04458798  0.49115074  0.11405667    -0.15300
F2798       F  0.00226063  0.50159857  0.11277046    -0.12900
C2799       C  0.98727370  0.59233979  0.12452303     0.25100
C2800       C  0.96630960  0.59095484  0.13310895    -0.23000
C2801       C  0.95241961  0.60867614  0.13124117     0.20000
C2802       C  0.95877034  0.62681790  0.11952302     0.25000
C2803       C  0.97910768  0.62748097  0.10935290    -0.23000
C2804       C  0.99362147  0.61041054  0.11271779     0.19900
F2805       F  0.01361710  0.61073216  0.10380037    -0.12900
F2806       F  0.00128532  0.57567156  0.12667357    -0.15300
F2807       F  0.94424355  0.64291330  0.11662775    -0.15300
F2808       F  0.93192436  0.60761469  0.13885032    -0.12900
C2809       C  0.36649470  0.44105606  0.36867517     0.25100
C2810       C  0.36858312  0.45104993  0.38883300    -0.23000
C2811       C  0.38095974  0.46988769  0.39043070     0.20000
C2812       C  0.39300613  0.47723557  0.37294423     0.25000
C2813       C  0.39298607  0.46588316  0.35337503    -0.23000
C2814       C  0.37864584  0.44839715  0.35102959     0.19900
F2815       F  0.37738046  0.43751627  0.33213188    -0.12900
F2816       F  0.35423601  0.42313791  0.36650940    -0.15300
F2817       F  0.40578221  0.49470104  0.37572993    -0.15300
F2818       F  0.38238717  0.48057275  0.40944043    -0.12900
C2819       C  0.40875853  0.53523363  0.26954994     0.25100
C2820       C  0.41221159  0.51343315  0.26441625    -0.23000
C2821       C  0.40434496  0.50571852  0.24457204     0.20000
C2822       C  0.39266216  0.51929549  0.23062949     0.25000
C2823       C  0.38858783  0.54085888  0.23624346    -0.23000
C2824       C  0.39709134  0.54866251  0.25577338     0.19900
F2825       F  0.39415711  0.56945312  0.26175417    -0.12900
F2826       F  0.41663622  0.54378825  0.28806076    -0.15300
F2827       F  0.38498888  0.51118156  0.21185990    -0.15300
F2828       F  0.40762083  0.48496075  0.23875891    -0.12900
C2829       C  0.48587912  0.41819605  0.34472155     0.25100
C2830       C  0.46783826  0.41769490  0.33096151    -0.23000
C2831       C  0.45637226  0.39841347  0.32868523     0.20000
C2832       C  0.46220578  0.38024631  0.34077367     0.25000
C2833       C  0.47974201  0.38101717  0.35528534    -0.23000
C2834       C  0.49179565  0.40009619  0.35670272     0.19900
F2835       F  0.50882083  0.40163648  0.37037133    -0.12900
F2836       F  0.49743632  0.43655249  0.34715287    -0.15300
F2837       F  0.44995645  0.36227657  0.33903632    -0.15300
F2838       F  0.43850735  0.39761747  0.31607341    -0.12900
C2839       C  0.67559863  0.53666304  0.38461819     0.25100
C2840       C  0.68568608  0.55689497  0.38523517    -0.23000
C2841       C  0.68480816  0.57014107  0.36698389     0.20000
C2842       C  0.67199246  0.56434079  0.34935399     0.25000
C2843       C  0.65992431  0.54512983  0.34973285    -0.23000
C2844       C  0.66282561  0.53081246  0.36702724     0.19900
F2845       F  0.65222555  0.51174864  0.36760301    -0.12900
F2846       F  0.67681541  0.52320718  0.40182000    -0.15300
F2847       F  0.66979878  0.57856105  0.33290480    -0.15300
F2848       F  0.69423607  0.58980508  0.36720725    -0.12900
C2849       C  0.53807304  0.50615090  0.32592932     0.25100
C2850       C  0.54687137  0.51521589  0.30709919    -0.23000
C2851       C  0.53357195  0.51758513  0.28883198     0.20000
C2852       C  0.51209200  0.51068440  0.28930212     0.25000
C2853       C  0.50335927  0.50176258  0.30815104    -0.23000
C2854       C  0.51646729  0.49969389  0.32649759     0.19900
F2855       F  0.50854259  0.49075069  0.34480722    -0.12900
F2856       F  0.55025938  0.50382013  0.34395442    -0.15300
F2857       F  0.49967528  0.51311847  0.27144849    -0.15300
F2858       F  0.54136836  0.52640979  0.27040941    -0.12900
C2859       C  0.56380841  0.59475159  0.34276423     0.25100
C2860       C  0.58236132  0.59634422  0.32984245    -0.23000
C2861       C  0.59245797  0.61634841  0.32747014     0.20000
C2862       C  0.58493622  0.63419953  0.33901838     0.25000
C2863       C  0.56710315  0.63227537  0.35304070    -0.23000
C2864       C  0.55617415  0.61252141  0.35413507     0.19900
F2865       F  0.53876449  0.60995574  0.36714873    -0.12900
F2866       F  0.55341374  0.57568459  0.34498069    -0.15300
F2867       F  0.59585467  0.65301050  0.33732053    -0.15300
F2868       F  0.61056317  0.61824008  0.31533157    -0.12900
C2869       C  0.61000397  0.36176871  0.16288879     0.25100
C2870       C  0.61095693  0.34270765  0.17492724    -0.23000
C2871       C  0.62267675  0.34246597  0.19431814     0.20000
C2872       C  0.63462662  0.36039104  0.20075039     0.25000
C2873       C  0.63509763  0.37903459  0.18790463    -0.23000
C2874       C  0.62189095  0.37982143  0.16934586     0.19900
F2875       F  0.62151641  0.39755170  0.15660261    -0.12900
F2876       F  0.59920424  0.36232332  0.14386777    -0.15300
F2877       F  0.64661725  0.35899586  0.21899207    -0.15300
F2878       F  0.62339063  0.32438471  0.20657101    -0.12900
C2879       C  0.65102958  0.51013185  0.24541274     0.25100
C2880       C  0.63267057  0.50445355  0.25744623    -0.23000
C2881       C  0.62322955  0.48421568  0.25417271     0.20000
C2882       C  0.63263433  0.46938856  0.24019681     0.25000
C2883       C  0.65168094  0.47444336  0.22910902    -0.23000
C2884       C  0.66054222  0.49514571  0.23132568     0.19900
F2885       F  0.67918355  0.50029558  0.22110272    -0.12900
F2886       F  0.66058072  0.52950732  0.24841560    -0.15300
F2887       F  0.62325659  0.44984868  0.23772215    -0.15300
F2888       F  0.60499064  0.47861926  0.26489957    -0.12900
C2889       C  0.91296407  0.34405549  0.26541428     0.25100
C2890       C  0.92457081  0.34631286  0.28477264    -0.23000
C2891       C  0.92488433  0.36636262  0.29502202     0.20000
C2892       C  0.91228248  0.38335541  0.28704938     0.25000
C2893       C  0.89926377  0.38058367  0.26856166    -0.23000
C2894       C  0.90049944  0.36099199  0.25734642     0.19900
F2895       F  0.88869964  0.35770013  0.23922437    -0.12900
F2896       F  0.91285816  0.32497032  0.25481199    -0.15300
F2897       F  0.91169211  0.40199705  0.29836344    -0.15300
F2898       F  0.93577555  0.36895102  0.31379997    -0.12900
C2899       C  0.90607012  0.49940938  0.21375316     0.25100
C2900       C  0.90447546  0.49695207  0.19122925    -0.23000
C2901       C  0.89059020  0.48105504  0.18307406     0.20000
C2902       C  0.87913636  0.46755716  0.19689621     0.25000
C2903       C  0.88114256  0.46942510  0.21940182    -0.23000
C2904       C  0.89451403  0.48574307  0.22772766     0.19900
F2905       F  0.89711134  0.48792525  0.24932078    -0.12900
F2906       F  0.91942809  0.51442586  0.22226615    -0.15300
F2907       F  0.86598953  0.45253084  0.18806263    -0.15300
F2908       F  0.88799436  0.47845747  0.16151386    -0.12900
C2909       C  0.77727834  0.44564546  0.22955058     0.25100
C2910       C  0.78835307  0.42611668  0.23247083    -0.23000
C2911       C  0.77704642  0.40671279  0.22981483     0.20000
C2912       C  0.75507744  0.40684496  0.22449476     0.25000
C2913       C  0.74405040  0.42638747  0.22136318    -0.23000
C2914       C  0.75547601  0.44577639  0.22365985     0.19900
F2915       F  0.74550151  0.46494092  0.22037208    -0.12900
F2916       F  0.78761927  0.46467359  0.23215904    -0.15300
F2917       F  0.74477381  0.38780768  0.22180043    -0.15300
F2918       F  0.78708886  0.38756818  0.23301385    -0.12900
C2919       C  0.80695758  0.38680820  0.31223480     0.25100
C2920       C  0.82284601  0.40290715  0.31362049    -0.23000
C2921       C  0.83114178  0.40829037  0.33394092     0.20000
C2922       C  0.82518055  0.39640342  0.35221672     0.25000
C2923       C  0.81055048  0.37911525  0.35052406    -0.23000
C2924       C  0.80079990  0.37512689  0.33046243     0.19900
F2925       F  0.78610500  0.35915087  0.32812740    -0.12900
F2926       F  0.79785202  0.38181291  0.29297858    -0.15300
F2927       F  0.83444887  0.40129262  0.37139547    -0.15300
F2928       F  0.84612023  0.42403834  0.33592355    -0.12900
C2929       C  0.70106858  0.39788030  0.10048180     0.25100
C2930       C  0.71924729  0.38417019  0.10116302    -0.23000
C2931       C  0.73241711  0.38437760  0.11961481     0.20000
C2932       C  0.72654394  0.39644043  0.13759332     0.25000
C2933       C  0.70734733  0.40849259  0.13761934    -0.23000
C2934       C  0.69520654  0.41000446  0.11860763     0.19900
F2935       F  0.67673032  0.42174157  0.11814063    -0.12900
F2936       F  0.68818546  0.39859752  0.08281816    -0.15300
F2937       F  0.73914707  0.39547388  0.15547451    -0.15300
F2938       F  0.75041479  0.37197395  0.12082456    -0.12900
C2939       C  0.67202484  0.28808992  0.08187299     0.25100
C2940       C  0.67094003  0.30761404  0.07046102    -0.23000
C2941       C  0.65164939  0.31942817  0.07087379     0.20000
C2942       C  0.63467978  0.31310688  0.08446242     0.25000
C2943       C  0.63671594  0.29472705  0.09772204    -0.23000
C2944       C  0.65515722  0.28172997  0.09538888     0.19900
F2945       F  0.65752400  0.26347014  0.10713916    -0.12900
F2946       F  0.69011087  0.27577607  0.08098231    -0.15300
F2947       F  0.61695842  0.32587999  0.08574565    -0.15300
F2948       F  0.65001096  0.33817926  0.05980408    -0.12900
C2949       C  0.79905542  0.12803618  0.12553742     0.25100
C2950       C  0.81033289  0.12750996  0.10588067    -0.23000
C2951       C  0.82745722  0.11265290  0.10357518     0.20000
C2952       C  0.83413721  0.09988823  0.12102523     0.25000
C2953       C  0.82401954  0.10193375  0.14114434    -0.23000
C2954       C  0.80585411  0.11544230  0.14293465     0.19900
F2955       F  0.79512265  0.11713430  0.16193364    -0.12900
F2956       F  0.78207479  0.14153952  0.12839733    -0.15300
F2957       F  0.85149125  0.08677520  0.11864351    -0.15300
F2958       F  0.83854047  0.11122537  0.08477801    -0.12900
C2959       C  0.77281025  0.27100579  0.04006102     0.25100
C2960       C  0.75880074  0.27840206  0.05614350    -0.23000
C2961       C  0.75194496  0.26415798  0.07228391     0.20000
C2962       C  0.75853048  0.24261015  0.07204620     0.25000
C2963       C  0.77263787  0.23501467  0.05593992    -0.23000
C2964       C  0.77984315  0.24959272  0.04003650     0.19900
F2965       F  0.79387344  0.24326058  0.02449921    -0.12900
F2966       F  0.78004558  0.28467012  0.02461653    -0.15300
F2967       F  0.75086413  0.22918864  0.08747957    -0.15300
F2968       F  0.73814934  0.27094755  0.08785378    -0.12900
C2969       C  0.85651194  0.22167153  0.08803070     0.25100
C2970       C  0.85753324  0.20269458  0.07579900    -0.23000
C2971       C  0.87724286  0.19173966  0.07408539     0.20000
C2972       C  0.89501689  0.19835180  0.08635157     0.25000
C2973       C  0.89333548  0.21619271  0.10031701    -0.23000
C2974       C  0.87424024  0.22842383  0.10009376     0.19900
F2975       F  0.87216280  0.24620851  0.11257206    -0.12900
F2976       F  0.83785550  0.23308738  0.08924657    -0.15300
F2977       F  0.91330517  0.18634295  0.08566891    -0.15300
F2978       F  0.87874448  0.17352035  0.06217095    -0.12900
C2979       C  0.64878741  0.15145774  0.92613221     0.25100
C2980       C  0.64628472  0.13353908  0.93987467    -0.23000
C2981       C  0.62565601  0.12888230  0.94799807     0.20000
C2982       C  0.60775485  0.14047854  0.94095336     0.25000
C2983       C  0.60991466  0.15667630  0.92526037    -0.23000
C2984       C  0.63067213  0.16289442  0.91877674     0.19900
F2985       F  0.63333008  0.17884859  0.90410684    -0.12900
F2986       F  0.66860415  0.15718801  0.91885921    -0.15300
F2987       F  0.58802291  0.13499329  0.94867594    -0.15300
F2988       F  0.62241553  0.11203029  0.96151924    -0.12900
C2989       C  0.75893447  0.12540280  0.97759694     0.25100
C2990       C  0.73889061  0.11720765  0.98447151    -0.23000
C2991       C  0.73320516  0.11941464  0.00632053     0.20000
C2992       C  0.74659367  0.13013963  0.02068950     0.25000
C2993       C  0.76616141  0.13928080  0.01381158    -0.23000
C2994       C  0.77247730  0.13636077  0.99216431     0.19900
F2995       F  0.79150368  0.14438468  0.98498479    -0.12900
F2996       F  0.76526842  0.12317008  0.95678915    -0.15300
F2997       F  0.74015181  0.13150801  0.04154669    -0.15300
F2998       F  0.71444492  0.11123957  0.01406649    -0.12900
C2999       C  0.66671654  0.04306493  0.88618577     0.25100
C3000       C  0.67576188  0.06375238  0.88684056    -0.23000
C3001       C  0.67312835  0.07753450  0.86916200     0.20000
C3002       C  0.66037544  0.07122875  0.85166374     0.25000
C3003       C  0.65024826  0.05093905  0.85157748    -0.23000
C3004       C  0.65419866  0.03664897  0.86865686     0.19900
F3005       F  0.64520068  0.01677780  0.86885941    -0.12900
F3006       F  0.66909658  0.02942959  0.90311976    -0.15300
F3007       F  0.65650525  0.08568053  0.83571975    -0.15300
F3008       F  0.68103702  0.09785002  0.86978484    -0.12900
C3009       C  0.65177109  0.85838896  0.03705039     0.25100
C3010       C  0.64968829  0.87301286  0.01975082    -0.23000
C3011       C  0.63059274  0.87265490  0.00749441     0.20000
C3012       C  0.61309923  0.86009410  0.01403175     0.25000
C3013       C  0.61435122  0.84745029  0.03280832    -0.23000
C3014       C  0.63422501  0.84566065  0.04348090     0.19900
F3015       F  0.63610017  0.83316305  0.06130878    -0.12900
F3016       F  0.67028021  0.85739096  0.04868215    -0.15300
F3017       F  0.59441275  0.86125268  0.00265225    -0.15300
F3018       F  0.62827688  0.88542613  0.98989705    -0.12900
C3019       C  0.67676608  0.01635572  0.97695290     0.25100
C3020       C  0.69622522  0.02614399  0.97065855    -0.23000
C3021       C  0.71534421  0.01387724  0.97097102     0.20000
C3022       C  0.71503744  0.99245885  0.97797169     0.25000
C3023       C  0.69555402  0.98278315  0.98430666    -0.23000
C3024       C  0.67641412  0.99487214  0.98349093     0.19900
F3025       F  0.65736888  0.98610739  0.98971089    -0.12900
F3026       F  0.65790354  0.02746213  0.97649165    -0.15300
F3027       F  0.73374925  0.98108788  0.97826483    -0.15300
F3028       F  0.73439667  0.02264523  0.96476805    -0.12900
C3029       C  0.65843281  0.96786716  0.06784908     0.25100
C3030       C  0.67496717  0.95234284  0.06932516    -0.23000
C3031       C  0.68179716  0.94565113  0.08985250     0.20000
C3032       C  0.67067574  0.95251821  0.10833031     0.25000
C3033       C  0.65258462  0.96620957  0.10653845    -0.23000
C3034       C  0.64739885  0.97472563  0.08620281     0.19900
F3035       F  0.63069385  0.98866379  0.08375138    -0.12900
F3036       F  0.65217977  0.97577351  0.04842150    -0.15300
F3037       F  0.67694631  0.94487387  0.12783907    -0.15300
F3038       F  0.69819821  0.93134053  0.09198921    -0.12900
C3039       C  0.73629092  0.62687165  0.83434632     0.25100
C3040       C  0.72742180  0.62414532  0.85501257    -0.23000
C3041       C  0.71244979  0.60736205  0.85829462     0.20000
C3042       C  0.70519482  0.59485334  0.84092995     0.25000
C3043       C  0.71275938  0.59893412  0.82002329    -0.23000
C3044       C  0.72903062  0.61444005  0.81710396     0.19900
F3045       F  0.73734162  0.61825598  0.79722816    -0.12900
F3046       F  0.75109386  0.64243697  0.83040906    -0.15300
F3047       F  0.68964605  0.57991380  0.84434157    -0.15300
F3048       F  0.70397685  0.60371062  0.87811438    -0.12900
C3049       C  0.67726429  0.71469810  0.86766570     0.25100
C3050       C  0.67683041  0.69697056  0.88171717    -0.23000
C3051       C  0.65736675  0.68589400  0.88474688     0.20000
C3052       C  0.63915565  0.69128393  0.87242956     0.25000
C3053       C  0.64016753  0.70791180  0.85695081    -0.23000
C3054       C  0.65915644  0.72016065  0.85547240     0.19900
F3055       F  0.66070290  0.73678483  0.84138847    -0.12900
F3056       F  0.69565698  0.72621742  0.86497511    -0.15300
F3057       F  0.62095462  0.67944412  0.87487917    -0.15300
F3058       F  0.65643700  0.66877725  0.89828410    -0.12900
C3059       C  0.83039776  0.89509135  0.85379209     0.25100
C3060       C  0.81316037  0.88028033  0.85308259    -0.23000
C3061       C  0.80126188  0.87844317  0.83387679     0.20000
C3062       C  0.80756386  0.88965409  0.81540740     0.25000
C3063       C  0.82568576  0.90322166  0.81570898    -0.23000
C3064       C  0.83656202  0.90648760  0.83525854     0.19900
F3065       F  0.85424168  0.91929629  0.83602442    -0.12900
F3066       F  0.84213323  0.89767787  0.87206104    -0.15300
F3067       F  0.79636521  0.88657263  0.79688727    -0.15300
F3068       F  0.78407035  0.86502924  0.83257664    -0.12900
C3069       C  0.77357796  0.87495384  0.96764614     0.25100
C3070       C  0.76771795  0.87118244  0.94602541    -0.23000
C3071       C  0.74782273  0.87928308  0.93864608     0.20000
C3072       C  0.73377936  0.88992386  0.95257059     0.25000
C3073       C  0.73917881  0.89312927  0.97439077    -0.23000
C3074       C  0.75945957  0.88586583  0.98169067     0.19900
F3075       F  0.76556325  0.88905811  0.00243235    -0.12900
F3076       F  0.79279734  0.86782159  0.97532090    -0.15300
F3077       F  0.71468502  0.89697627  0.94446137    -0.15300
F3078       F  0.74171441  0.87693828  0.91777317    -0.12900
C3079       C  0.77689707  0.76366075  0.88497791     0.25100
C3080       C  0.77889601  0.77486843  0.90457651    -0.23000
C3081       C  0.77433664  0.76390190  0.92389992     0.20000
C3082       C  0.76696294  0.74257832  0.92351546     0.25000
C3083       C  0.76441361  0.73160093  0.90385044    -0.23000
C3084       C  0.76987562  0.74226831  0.88462618     0.19900
F3085       F  0.76782679  0.73222083  0.86533924    -0.12900
F3086       F  0.78218032  0.77327512  0.86606815    -0.15300
F3087       F  0.76256702  0.73256136  0.94244327    -0.15300
F3088       F  0.77670656  0.77387634  0.94318893    -0.12900
C3089       C  0.86656365  0.79069818  0.88238699     0.25100
C3090       C  0.86546673  0.81139459  0.89137109    -0.23000
C3091       C  0.88353763  0.82486723  0.88994641     0.20000
C3092       C  0.90133917  0.81873037  0.87737042     0.25000
C3093       C  0.90122549  0.79900291  0.86612595    -0.23000
C3094       C  0.88426085  0.78453090  0.86992255     0.19900
F3095       F  0.88411651  0.76484736  0.86052296    -0.12900
F3096       F  0.84969651  0.77694925  0.88441975    -0.15300
F3097       F  0.91778556  0.83286785  0.87480294    -0.15300
F3098       F  0.88305712  0.84480909  0.89877440    -0.12900
C3099       C  0.89817993  0.36453565  0.94796896     0.25100
C3100       C  0.88245611  0.37071116  0.93283875    -0.23000
C3101       C  0.88359110  0.36215717  0.91181008     0.20000
C3102       C  0.90127221  0.34957236  0.90551959     0.25000
C3103       C  0.91818308  0.34569112  0.92000060    -0.23000
C3104       C  0.91603550  0.35237162  0.94151724     0.19900
F3105       F  0.93196899  0.34826120  0.95597233    -0.12900
F3106       F  0.89688900  0.37120591  0.96874245    -0.15300
F3107       F  0.90303022  0.34330985  0.88465108    -0.15300
F3108       F  0.86869791  0.36758068  0.89671839    -0.12900
C3109       C  0.77232273  0.39163075  0.97804565     0.25100
C3110       C  0.79479772  0.38894767  0.98039601    -0.23000
C3111       C  0.80241788  0.37512113  0.99667575     0.20000
C3112       C  0.78813901  0.36463580  0.01048742     0.25000
C3113       C  0.76572812  0.36778999  0.00873901    -0.23000
C3114       C  0.75789258  0.38121218  0.99218337     0.19900
F3115       F  0.73640958  0.38495835  0.99023177    -0.12900
F3116       F  0.76435413  0.40495822  0.96265719    -0.15300
F3117       F  0.79639238  0.35110895  0.02557857    -0.15300
F3118       F  0.82387824  0.37154066  0.99926618    -0.12900
C3119       C  0.87440636  0.46940094  0.89107746     0.25100
C3120       C  0.86176229  0.45078709  0.88870098    -0.23000
C3121       C  0.86058040  0.44098720  0.86838307     0.20000
C3122       C  0.87332932  0.44856550  0.85127936     0.25000
C3123       C  0.88742970  0.46615555  0.85422375    -0.23000
C3124       C  0.88699437  0.47706572  0.87404447     0.19900
F3125       F  0.89957821  0.49457228  0.87739787    -0.12900
F3126       F  0.87528718  0.47973511  0.91030825    -0.15300
F3127       F  0.87281450  0.43780993  0.83227576    -0.15300
F3128       F  0.84853366  0.42302250  0.86555050    -0.12900
C3129       C  0.93175841  0.63733611  0.01837867     0.25100
C3130       C  0.93070611  0.65218964  0.03547581    -0.23000
C3131       C  0.91046319  0.65654288  0.04475271     0.20000
C3132       C  0.89193670  0.64541524  0.03784157     0.25000
C3133       C  0.89326811  0.62975092  0.02141917    -0.23000
C3134       C  0.91335795  0.62636991  0.01141365     0.19900
F3135       F  0.91559595  0.61150263  0.99557988    -0.12900
F3136       F  0.95086508  0.63278642  0.00872127    -0.15300
F3137       F  0.87285928  0.64949489  0.04776066    -0.15300
F3138       F  0.90880657  0.67052747  0.06143448    -0.12900
C3139       C  0.77535848  0.61841691  0.98078139     0.25100
C3140       C  0.79790136  0.62087722  0.97875071    -0.23000
C3141       C  0.80584374  0.63504230  0.96302204     0.20000
C3142       C  0.79198875  0.64544401  0.94881568     0.25000
C3143       C  0.76959324  0.64219717  0.94980977    -0.23000
C3144       C  0.76124448  0.62907209  0.96637889     0.19900
F3145       F  0.73966976  0.62572028  0.96797787    -0.12900
F3146       F  0.76707887  0.60492862  0.99584106    -0.15300
F3147       F  0.80071217  0.65873117  0.93381514    -0.15300
F3148       F  0.82733732  0.63873248  0.96112611    -0.12900
C3149       C  0.82053822  0.51213496  0.98698680     0.25100
C3150       C  0.83871451  0.52526355  0.98340005    -0.23000
C3151       C  0.85711368  0.51609839  0.97374578     0.20000
C3152       C  0.85746726  0.49433383  0.96812589     0.25000
C3153       C  0.83930752  0.48133064  0.97159135    -0.23000
C3154       C  0.82077480  0.49043620  0.98088908     0.19900
F3155       F  0.80304268  0.47817566  0.98447959    -0.12900
F3156       F  0.80249808  0.52025052  0.99635857    -0.15300
F3157       F  0.87539799  0.48611901  0.95863338    -0.15300
F3158       F  0.87504352  0.52806227  0.97015604    -0.12900
C3159       C  0.86518948  0.55971280  0.08401920     0.25100
C3160       C  0.87076595  0.55440398  0.06278324    -0.23000
C3161       C  0.88863686  0.54075478  0.05922316     0.20000
C3162       C  0.90166751  0.53410803  0.07637610     0.25000
C3163       C  0.89691291  0.54064154  0.09752027    -0.23000
C3164       C  0.87814274  0.55293987  0.10120575     0.19900
F3165       F  0.87265604  0.55910158  0.12143773    -0.12900
F3166       F  0.84789558  0.57245958  0.08813242    -0.15300
F3167       F  0.91962527  0.52235280  0.07203852    -0.15300
F3168       F  0.89405553  0.53441712  0.03899243    -0.12900
loop_ 
_geom_bond_atom_site_label_1 
_geom_bond_atom_site_label_2 
_geom_bond_distance 
_geom_bond_site_symmetry_2 
_ccdc_geom_bond_type 
In1           O3   2.237       .  S
In1           O4   2.233   1_554  S
In1          O12   2.195   1_554  S
In1           O6   2.288       .  S
In1           O8   2.256       .  S
In1           O9   2.242       .  S
In1          O10   2.186       .  S
In1          O13   2.255       .  S
C2            O8   1.277       .  A
C2           O10   1.262       .  A
C2         C3160   1.482       .  S
O3           C11   1.267   1_554  A
O4           C11   1.270       .  A
C5           O12   1.264       .  A
C5            O6   1.272   1_556  A
C5         C3140   1.488       .  S
C7            O9   1.270       .  A
C7           O13   1.267       .  A
C7         C3133   1.496       .  S
C11        C3150   1.486       .  S
In14         O16   2.232       .  S
In14         O17   2.240       .  S
In14         O25   2.209       .  S
In14         O19   2.274       .  S
In14         O21   2.277       .  S
In14         O22   2.241       .  S
In14         O23   2.198       .  S
In14         O26   2.231       .  S
C15          O21   1.275       .  A
C15          O23   1.261       .  A
C15        C3120   1.482       .  S
O16          C24   1.266       .  A
O17          C24   1.270       .  A
C18          O25   1.265       .  A
C18          O19   1.273       .  A
C18        C3110   1.491       .  S
C20          O22   1.270       .  A
C20          O26   1.265       .  A
C20        C3100   1.485       .  S
C24        C3153   1.478       .  S
In27         O29   2.257       .  S
In27         O30   2.243       .  S
In27         O38   2.216       .  S
In27         O32   2.276       .  S
In27         O34   2.283       .  S
In27         O35   2.252       .  S
In27         O36   2.196       .  S
In27         O39   2.244       .  S
C28          O34   1.270       .  A
C28          O36   1.258       .  A
C28        C3090   1.476       .  S
O29          C37   1.266       .  A
O30          C37   1.266       .  A
C31          O38   1.262       .  A
C31          O32   1.269       .  A
C31        C3070   1.492       .  S
C33          O35   1.266       .  A
C33          O39   1.262       .  A
C33        C3060   1.489       .  S
C37        C3080   1.489       .  S
In40         O42   2.245       .  S
In40         O43   2.254       .  S
In40         O51   2.198       .  S
In40         O45   2.286       .  S
In40         O47   2.271       .  S
In40         O48   2.250       .  S
In40         O49   2.194       .  S
In40         O52   2.238       .  S
C41          O47   1.271       .  A
C41          O49   1.259       .  A
C41        C3050   1.477       .  S
O42          C50   1.265       .  A
O43          C50   1.268       .  A
C44          O51   1.263       .  A
C44          O45   1.270       .  A
C44        C3143   1.488       .  S
C46          O48   1.267       .  A
C46          O52   1.263       .  A
C46        C3040   1.488       .  S
C50        C3083   1.488       .  S
In53         O55   2.233       .  S
In53         O56   2.233   1_554  S
In53         O64   2.196   1_554  S
In53         O58   2.276       .  S
In53         O60   2.281       .  S
In53         O61   2.243       .  S
In53         O62   2.195       .  S
In53         O65   2.243       .  S
C54          O60   1.274       .  A
C54          O62   1.260       .  A
C54        C3030   1.485       .  S
O55          C63   1.266   1_554  A
O56          C63   1.268       .  A
C57          O64   1.263       .  A
C57          O58   1.273   1_556  A
C57        C3073   1.492       .  S
C59          O61   1.267       .  A
C59          O65   1.265       .  A
C59        C3010   1.490       .  S
C63        C3023   1.478       .  S
In66         O68   2.239       .  S
In66         O69   2.226       .  S
In66         O77   2.187       .  S
In66         O71   2.280       .  S
In66         O73   2.266       .  S
In66         O74   2.230       .  S
In66         O75   2.189       .  S
In66         O78   2.238       .  S
C67          O73   1.272       .  A
C67          O75   1.259       .  A
C67        C3000   1.470       .  S
O68          C76   1.266       .  A
O69          C76   1.267       .  A
C70          O77   1.261       .  A
C70          O71   1.271       .  A
C70        C2990   1.489       .  S
C72          O74   1.266       .  A
C72          O78   1.264       .  A
C72        C2980   1.483       .  S
C76        C3020   1.482       .  S
In79         O81   2.234       .  S
In79         O82   2.253       .  S
In79         O90   2.204       .  S
In79         O84   2.280       .  S
In79         O86   2.266       .  S
In79         O87   2.253       .  S
In79         O88   2.192       .  S
In79         O91   2.237       .  S
C80          O86   1.272       .  A
C80          O88   1.261       .  A
C80        C2970   1.474       .  S
O81          C89   1.265       .  A
O82          C89   1.269       .  A
C83          O90   1.262       .  A
C83          O84   1.270       .  A
C83        C2993   1.491       .  S
C85          O87   1.269       .  A
C85          O91   1.263       .  A
C85        C2950   1.491       .  S
C89        C2963   1.491       .  S
In92         O94   2.238       .  S
In92         O95   2.238       .  S
In92        O103   2.210       .  S
In92         O97   2.286       .  S
In92         O99   2.289       .  S
In92        O100   2.232       .  S
In92        O101   2.200       .  S
In92        O104   2.246       .  S
C93          O99   1.272       .  A
C93         O101   1.257       .  A
C93        C2940   1.480       .  S
O94         C102   1.266       .  A
O95         C102   1.266       .  A
C96         O103   1.262       .  A
C96          O97   1.271       .  A
C96        C3113   1.490       .  S
C98         O100   1.265       .  A
C98         O104   1.263       .  A
C98        C2930   1.484       .  S
C102       C2960   1.474       .  S
In105       O107   2.229       .  S
In105       O108   2.238       .  S
In105       O116   2.212       .  S
In105       O110   2.275       .  S
In105       O112   2.269       .  S
In105       O113   2.244       .  S
In105       O114   2.193       .  S
In105       O117   2.224       .  S
C106        O112   1.275       .  A
C106        O114   1.262       .  A
C106       C2920   1.482       .  S
O107        C115   1.267       .  A
O108        C115   1.270       .  A
C109        O116   1.265       .  A
C109        O110   1.272       .  A
C109       C2903   1.492       .  S
C111        O113   1.270       .  A
C111        O117   1.265       .  A
C111       C2893   1.488       .  S
C115       C2910   1.482       .  S
In118       O120   2.229       .  S
In118       O121   2.252       .  S
In118       O129   2.222       .  S
In118       O123   2.265       .  S
In118       O125   2.266       .  S
In118       O126   2.253       .  S
In118       O127   2.191       .  S
In118       O130   2.237       .  S
C119        O125   1.271       .  A
C119        O127   1.259       .  A
C119       C2933   1.474       .  S
O120        C128   1.263       .  A
O121        C128   1.269       .  A
C122        O129   1.263       .  A
C122        O123   1.267       .  A
C122       C2883   1.478       .  S
C124        O126   1.269       .  A
C124        O130   1.263       .  A
C124       C2873   1.491       .  S
C128       C2913   1.483       .  S
In131       O133   2.226       .  S
In131       O134   2.233       .  S
In131       O142   2.201       .  S
In131       O136   2.270       .  S
In131       O138   2.262       .  S
In131       O139   2.243       .  S
In131       O140   2.195       .  S
In131       O143   2.226       .  S
C132        O138   1.272       .  A
C132        O140   1.261       .  A
C132       C2860   1.474       .  S
O133        C141   1.267       .  A
O134        C141   1.270       .  A
C135        O142   1.262       .  A
C135        O136   1.270       .  A
C135       C2880   1.478       .  S
C137        O139   1.268       .  A
C137        O143   1.263       .  A
C137       C2843   1.483       .  S
C141       C2850   1.483       .  S
In144       O146   2.233       .  S
In144       O147   2.237       .  S
In144       O155   2.208       .  S
In144       O149   2.272       .  S
In144       O151   2.271       .  S
In144       O152   2.232       .  S
In144       O153   2.196       .  S
In144       O156   2.240       .  S
C145        O151   1.275       .  A
C145        O153   1.261       .  A
C145       C2830   1.480       .  S
O146        C154   1.267       .  A
O147        C154   1.268       .  A
C148        O155   1.264       .  A
C148        O149   1.273       .  A
C148       C2820   1.494       .  S
C150        O152   1.269       .  A
C150        O156   1.265       .  A
C150       C2813   1.488       .  S
C154       C2853   1.476       .  S
In157       O159   2.225       .  S
In157       O160   2.235       .  S
In157       O168   2.217       .  S
In157       O162   2.279       .  S
In157       O164   2.270       .  S
In157       O165   2.253       .  S
In157       O166   2.209       .  S
In157       O169   2.222       .  S
C158        O164   1.270       .  A
C158        O166   1.258       .  A
C158       C2800   1.476       .  S
O159        C167   1.264       .  A
O160        C167   1.268       .  A
C161        O168   1.262       .  A
C161        O162   1.269       .  A
C161       C2900   1.491       .  S
C163        O165   1.267       .  A
C163        O169   1.262       .  A
C163       C3163   1.484       .  S
C167       C2790   1.478   1_655  S
In170       O172   2.229       .  S
In170       O173   2.220       .  S
In170       O181   2.200       .  S
In170       O175   2.279       .  S
In170       O177   2.276       .  S
In170       O178   2.228       .  S
In170       O179   2.198       .  S
In170       O182   2.218       .  S
C171        O177   1.274       .  A
C171        O179   1.259       .  A
C171       C2780   1.479       .  S
O172        C180   1.267       .  A
O173        C180   1.267       .  A
C174        O181   1.262       .  A
C174        O175   1.272       .  A
C174       C2770   1.493       .  S
C176        O178   1.267       .  A
C176        O182   1.264       .  A
C176       C2760   1.479       .  S
C180       C2793   1.475       .  S
In183       O185   2.241       .  S
In183       O186   2.238       .  S
In183       O194   2.211       .  S
In183       O188   2.272       .  S
In183       O190   2.279       .  S
In183       O191   2.239       .  S
In183       O192   2.191       .  S
In183       O195   2.242       .  S
C184        O190   1.273       .  A
C184        O192   1.260       .  A
C184       C2750   1.479       .  S
O185        C193   1.266       .  A
O186        C193   1.267       .  A
C187        O194   1.262       .  A
C187        O188   1.271       .  A
C187       C2823   1.492       .  S
C189        O191   1.267       .  A
C189        O195   1.264       .  A
C189       C2730   1.488       .  S
C193       C2740   1.485       .  S
In196       O198   2.242       .  S
In196       O199   2.242       .  S
In196       O207   2.210       .  S
In196       O201   2.286       .  S
In196       O203   2.278       .  S
In196       O204   2.242       .  S
In196       O205   2.179       .  S
In196       O208   2.256       .  S
C197        O203   1.274       .  A
C197        O205   1.258       .  A
C197       C2720   1.475       .  S
O198        C206   1.266       .  A
O199        C206   1.268       .  A
C200        O207   1.262       .  A
C200        O201   1.271       .  A
C200       C2773   1.496       .  S
C202        O204   1.267       .  A
C202        O208   1.265       .  A
C202       C2710   1.494       .  S
C206       C2743   1.483       .  S
In209       O211   2.244       .  S
In209       O212   2.236       .  S
In209       O220   2.204       .  S
In209       O214   2.277       .  S
In209       O216   2.265       .  S
In209       O217   2.243       .  S
In209       O218   2.200       .  S
In209       O221   2.241       .  S
C210        O216   1.275       .  A
C210        O218   1.262       .  A
C210       C2700   1.484       .  S
O211        C219   1.267       .  A
O212        C219   1.270       .  A
C213        O220   1.264       .  A
C213        O214   1.273       .  A
C213       C2680   1.492       .  S
C215        O217   1.269       .  A
C215        O221   1.265       .  A
C215       C2673   1.490       .  S
C219       C2693   1.487       .  S
In222       O224   2.266       .  S
In222       O225   2.229       .  S
In222       O233   2.204   1_655  S
In222       O227   2.276       .  S
In222       O229   2.284       .  S
In222       O230   2.231       .  S
In222       O231   2.187       .  S
In222       O234   2.246       .  S
C223        O229   1.272       .  A
C223        O231   1.257       .  A
C223       C2660   1.475       .  S
O224        C232   1.267       .  A
O225        C232   1.265       .  A
C226        O233   1.261       .  A
C226        O227   1.271   1_455  A
C226       C2650   1.491       .  S
C228        O230   1.266       .  A
C228        O234   1.263       .  A
C228       C2640   1.485       .  S
C232       C2690   1.488   1_655  S
In235       O237   2.237       .  S
In235       O238   2.248       .  S
In235       O246   2.201       .  S
In235       O240   2.273       .  S
In235       O242   2.270       .  S
In235       O243   2.238       .  S
In235       O244   2.186       .  S
In235       O247   2.242       .  S
C236        O242   1.273       .  A
C236        O244   1.260       .  A
C236       C2630   1.471       .  S
O237        C245   1.266       .  A
O238        C245   1.268       .  A
C239        O246   1.263       .  A
C239        O240   1.271       .  A
C239       C2610   1.489       .  S
C241        O243   1.268       .  A
C241        O247   1.264       .  A
C241       C3093   1.486       .  S
C245       C2620   1.483       .  S
In248       O250   2.236       .  S
In248       O251   2.262       .  S
In248       O259   2.216       .  S
In248       O253   2.287       .  S
In248       O255   2.279       .  S
In248       O256   2.246       .  S
In248       O257   2.192       .  S
In248       O260   2.244       .  S
C249        O255   1.272       .  A
C249        O257   1.260       .  A
C249       C2600   1.476       .  S
O250        C258   1.265       .  A
O251        C258   1.268       .  A
C252        O259   1.262       .  A
C252        O253   1.270       .  A
C252       C2683   1.494       .  S
C254        O256   1.268       .  A
C254        O260   1.264       .  A
C254       C2590   1.490       .  S
C258       C2623   1.493       .  S
In261       O263   2.226       .  S
In261       O264   2.236       .  S
In261       O272   2.197       .  S
In261       O266   2.269       .  S
In261       O268   2.258       .  S
In261       O269   2.248       .  S
In261       O270   2.194       .  S
In261       O273   2.231       .  S
C262        O268   1.271       .  A
C262        O270   1.261       .  A
C262       C2583   1.467       .  S
O263        C271   1.265       .  A
O264        C271   1.269       .  A
C265        O272   1.261       .  A
C265        O266   1.269       .  A
C265       C2613   1.487       .  S
C267        O269   1.267       .  A
C267        O273   1.262       .  A
C267       C2563   1.485       .  S
C271       C2573   1.478       .  S
In274       O276   2.224       .  S
In274       O277   2.235   1_655  S
In274       O285   2.204   1_655  S
In274       O279   2.294       .  S
In274       O281   2.283       .  S
In274       O282   2.242       .  S
In274       O283   2.212       .  S
In274       O286   2.221       .  S
C275        O281   1.275       .  A
C275        O283   1.262       .  A
C275       C3130   1.492       .  S
O276        C284   1.265   1_655  A
O277        C284   1.267       .  A
C278        O285   1.262       .  A
C278        O279   1.273   1_455  A
C278       C2553   1.494       .  S
C280        O282   1.269       .  A
C280        O286   1.264       .  A
C280       C2803   1.482       .  S
C284       C2570   1.465       .  S
In287       O289   2.221       .  S
In287       O290   2.254       .  S
In287       O298   2.213       .  S
In287       O292   2.279       .  S
In287       O294   2.258       .  S
In287       O295   2.248       .  S
In287       O296   2.199       .  S
In287       O299   2.222       .  S
C288        O294   1.274       .  A
C288        O296   1.264       .  A
C288       C2540   1.481       .  S
O289        C297   1.264       .  A
O290        C297   1.271       .  A
C291        O298   1.264       .  A
C291        O292   1.271       .  A
C291       C2550   1.494       .  S
C293        O295   1.271       .  A
C293        O299   1.264       .  A
C293       C2520   1.488       .  S
C297       C2530   1.478       .  S
In300       O302   2.220       .  S
In300       O303   2.247       .  S
In300       O311   2.211       .  S
In300       O305   2.277       .  S
In300       O307   2.272       .  S
In300       O308   2.236       .  S
In300       O309   2.207       .  S
In300       O312   2.238       .  S
C301        O307   1.275       .  A
C301        O309   1.264       .  A
C301       C2713   1.489       .  S
O302        C310   1.265       .  A
O303        C310   1.270       .  A
C304        O311   1.263       .  A
C304        O305   1.272       .  A
C304       C2653   1.494       .  S
C306        O308   1.269       .  A
C306        O312   1.265       .  A
C306       C2513   1.489       .  S
C310       C2533   1.474       .  S
In313       O315   2.237       .  S
In313       O316   2.229       .  S
In313       O324   2.208       .  S
In313       O318   2.265       .  S
In313       O320   2.262       .  S
In313       O321   2.225       .  S
In313       O322   2.182       .  S
In313       O325   2.238       .  S
C314        O320   1.272       .  A
C314        O322   1.258       .  A
C314       C2500   1.464       .  S
O315        C323   1.266       .  A
O316        C323   1.266       .  A
C317        O324   1.261       .  A
C317        O318   1.270       .  A
C317       C2480   1.488       .  S
C319        O321   1.266       .  A
C319        O325   1.263       .  A
C319       C2470   1.483       .  S
C323       C2490   1.481       .  S
In326       O328   2.224       .  S
In326       O329   2.245       .  S
In326       O337   2.199       .  S
In326       O331   2.276       .  S
In326       O333   2.278       .  S
In326       O334   2.247       .  S
In326       O335   2.193       .  S
In326       O338   2.230       .  S
C327        O333   1.272       .  A
C327        O335   1.260       .  A
C327       C2810   1.479       .  S
O328        C336   1.265       .  A
O329        C336   1.269       .  A
C330        O337   1.263       .  A
C330        O331   1.271       .  A
C330       C2463   1.492       .  S
C332        O334   1.268       .  A
C332        O338   1.264       .  A
C332       C2450   1.485       .  S
C336       C2493   1.479       .  S
In339       O341   2.242       .  S
In339       O342   2.234       .  S
In339       O350   2.215       .  S
In339       O344   2.263       .  S
In339       O346   2.279       .  S
In339       O347   2.245       .  S
In339       O348   2.185       .  S
In339       O351   2.229       .  S
C340        O346   1.273       .  A
C340        O348   1.258       .  A
C340       C2443   1.478       .  S
O341        C349   1.265       .  A
O342        C349   1.267       .  A
C343        O350   1.263       .  A
C343        O344   1.269       .  A
C343       C2420   1.486       .  S
C345        O347   1.268       .  A
C345        O351   1.264       .  A
C345       C2703   1.486       .  S
C349       C2430   1.481       .  S
In352       O354   2.233       .  S
In352       O355   2.244       .  S
In352       O363   2.200       .  S
In352       O357   2.277       .  S
In352       O359   2.268       .  S
In352       O360   2.241       .  S
In352       O361   2.195       .  S
In352       O364   2.227       .  S
C353        O359   1.273       .  A
C353        O361   1.261       .  A
C353       C2410   1.475       .  S
O354        C362   1.266       .  A
O355        C362   1.269       .  A
C356        O363   1.263       .  A
C356        O357   1.271       .  A
C356       C2403   1.493       .  S
C358        O360   1.269       .  A
C358        O364   1.264       .  A
C358       C2393   1.485       .  S
C362       C2433   1.486       .  S
In365       O367   2.223       .  S
In365       O368   2.235       .  S
In365       O376   2.206       .  S
In365       O370   2.264       .  S
In365       O372   2.275       .  S
In365       O373   2.237       .  S
In365       O374   2.191       .  S
In365       O377   2.247       .  S
C366        O372   1.271       .  A
C366        O374   1.259       .  A
C366       C2380   1.475       .  S
O367        C375   1.265       .  A
O368        C375   1.268       .  A
C369        O376   1.262       .  A
C369        O370   1.270       .  A
C369       C2423   1.485       .  S
C371        O373   1.266       .  A
C371        O377   1.263       .  A
C371       C2360   1.487       .  S
C375       C2370   1.477       .  S
In378       O380   2.232       .  S
In378       O381   2.234       .  S
In378       O389   2.205       .  S
In378       O383   2.260       .  S
In378       O385   2.272       .  S
In378       O386   2.217       .  S
In378       O387   2.189       .  S
In378       O390   2.239       .  S
C379        O385   1.273       .  A
C379        O387   1.260       .  A
C379       C2510   1.477       .  S
O380        C388   1.266       .  A
O381        C388   1.267       .  A
C382        O389   1.262       .  A
C382        O383   1.272       .  A
C382       C2483   1.488       .  S
C384        O386   1.268       .  A
C384        O390   1.265       .  A
C384       C2723   1.482       .  S
C388       C2373   1.482       .  S
In391       O393   2.219       .  S
In391       O394   2.245       .  S
In391       O402   2.199       .  S
In391       O396   2.283       .  S
In391       O398   2.265       .  S
In391       O399   2.244       .  S
In391       O400   2.187       .  S
In391       O403   2.232       .  S
C392        O398   1.275       .  A
C392        O400   1.263       .  A
C392       C2350   1.481       .  S
O393        C401   1.264       .  A
O394        C401   1.269       .  A
C395        O402   1.262       .  A
C395        O396   1.271       .  A
C395       C2400   1.493       .  S
C397        O399   1.269       .  A
C397        O403   1.265       .  A
C397       C2330   1.488       .  S
C401       C2340   1.470       .  S
In404       O406   2.218       .  S
In404       O407   2.225       .  S
In404       O415   2.190       .  S
In404       O409   2.286       .  S
In404       O411   2.257       .  S
In404       O412   2.210       .  S
In404       O413   2.198       .  S
In404       O416   2.226       .  S
C405        O411   1.279       .  A
C405        O413   1.265       .  A
C405       C2320   1.488       .  S
O406        C414   1.267       .  A
O407        C414   1.269       .  A
C408        O415   1.263       .  A
C408        O409   1.275       .  A
C408       C2460   1.495       .  S
C410        O412   1.270       .  A
C410        O416   1.268       .  A
C410       C2310   1.481       .  S
C414       C2343   1.470       .  S
In417       O419   2.224       .  S
In417       O420   2.244       .  S
In417       O428   2.207       .  S
In417       O422   2.270       .  S
In417       O424   2.267       .  S
In417       O425   2.241       .  S
In417       O426   2.192       .  S
In417       O429   2.224       .  S
C418        O424   1.272       .  A
C418        O426   1.260       .  A
C418       C2473   1.476       .  S
O419        C427   1.265       .  A
O420        C427   1.268       .  A
C421        O428   1.264       .  A
C421        O422   1.270       .  A
C421       C2290   1.484       .  S
C423        O425   1.268       .  A
C423        O429   1.262       .  A
C423       C2280   1.484       .  S
C427       C2300   1.477       .  S
In430       O432   2.227       .  S
In430       O433   2.234       .  S
In430       O441   2.195       .  S
In430       O435   2.279       .  S
In430       O437   2.268       .  S
In430       O438   2.225       .  S
In430       O439   2.183       .  S
In430       O442   2.227       .  S
C431        O437   1.275       .  A
C431        O439   1.260       .  A
C431       C2270   1.478       .  S
O432        C440   1.267       .  A
O433        C440   1.267       .  A
C434        O441   1.262       .  A
C434        O435   1.272       .  A
C434       C2260   1.488       .  S
C436        O438   1.268       .  A
C436        O442   1.265       .  A
C436       C2863   1.482       .  S
C440       C2303   1.481       .  S
In443       O445   2.241       .  S
In443       O446   2.238       .  S
In443       O454   2.194       .  S
In443       O448   2.279       .  S
In443       O450   2.270       .  S
In443       O451   2.239       .  S
In443       O452   2.193       .  S
In443       O455   2.241       .  S
C444        O450   1.271       .  A
C444        O452   1.259       .  A
C444       C2250   1.475       .  S
O445        C453   1.265       .  A
O446        C453   1.266       .  A
C447        O454   1.261       .  A
C447        O448   1.270       .  A
C447       C2230   1.481       .  S
C449        O451   1.266       .  A
C449        O455   1.263       .  A
C449       C3053   1.486       .  S
C453       C2240   1.484       .  S
In456       O458   2.236       .  S
In456       O459   2.238       .  S
In456       O467   2.198       .  S
In456       O461   2.278       .  S
In456       O463   2.272       .  S
In456       O464   2.239       .  S
In456       O465   2.200       .  S
In456       O468   2.240       .  S
C457        O463   1.273       .  A
C457        O465   1.260       .  A
C457       C2220   1.479       .  S
O458        C466   1.266       .  A
O459        C466   1.269       .  A
C460        O467   1.263       .  A
C460        O461   1.272       .  A
C460       C2293   1.485       .  S
C462        O464   1.269       .  A
C462        O468   1.265       .  A
C462       C2210   1.488       .  S
C466       C2243   1.483       .  S
In469       O471   2.238       .  S
In469       O472   2.241       .  S
In469       O480   2.192       .  S
In469       O474   2.277       .  S
In469       O476   2.260       .  S
In469       O477   2.239       .  S
In469       O478   2.196       .  S
In469       O481   2.243       .  S
C470        O476   1.272       .  A
C470        O478   1.260       .  A
C470       C2200   1.471       .  S
O471        C479   1.266       .  A
O472        C479   1.269       .  A
C473        O480   1.262       .  A
C473        O474   1.271       .  A
C473       C2263   1.486       .  S
C475        O477   1.267       .  A
C475        O481   1.264       .  A
C475       C2383   1.487       .  S
C479       C2193   1.490       .  S
In482       O484   2.241       .  S
In482       O485   2.241       .  S
In482       O493   2.219       .  S
In482       O487   2.266       .  S
In482       O489   2.273       .  S
In482       O490   2.239       .  S
In482       O491   2.197       .  S
In482       O494   2.246       .  S
C483        O489   1.275       .  A
C483        O491   1.261       .  A
C483       C2733   1.482       .  S
O484        C492   1.267       .  A
O485        C492   1.270       .  A
C486        O493   1.265       .  A
C486        O487   1.273       .  A
C486       C2180   1.495       .  S
C488        O490   1.270       .  A
C488        O494   1.265       .  A
C488       C2170   1.492       .  S
C492       C2190   1.482       .  S
In495       O497   2.247       .  S
In495       O498   2.241       .  S
In495       O506   2.204       .  S
In495       O500   2.281       .  S
In495       O502   2.277       .  S
In495       O503   2.246       .  S
In495       O504   2.189       .  S
In495       O507   2.241       .  S
C496        O502   1.272       .  A
C496        O504   1.258       .  A
C496       C2160   1.480       .  S
O497        C505   1.265       .  A
O498        C505   1.266       .  A
C499        O506   1.263       .  A
C499        O500   1.269       .  A
C499       C2233   1.485       .  S
C501        O503   1.266       .  A
C501        O507   1.263       .  A
C501       C2140   1.488       .  S
C505       C2150   1.479       .  S
In508       O510   2.232       .  S
In508       O511   2.234       .  S
In508       O519   2.218       .  S
In508       O513   2.272       .  S
In508       O515   2.276       .  S
In508       O516   2.231       .  S
In508       O517   2.193       .  S
In508       O520   2.242       .  S
C509        O515   1.276       .  A
C509        O517   1.262       .  A
C509       C3013   1.481       .  S
O510        C518   1.267       .  A
O511        C518   1.270       .  A
C512        O519   1.264       .  A
C512        O513   1.273       .  A
C512       C2183   1.494       .  S
C514        O516   1.269       .  A
C514        O520   1.266       .  A
C514       C2130   1.488       .  S
C518       C2153   1.487       .  S
In521       O523   2.229       .  S
In521       O524   2.242       .  S
In521       O532   2.213       .  S
In521       O526   2.268       .  S
In521       O528   2.267       .  S
In521       O529   2.239       .  S
In521       O530   2.191       .  S
In521       O533   2.236       .  S
C522        O528   1.275       .  A
C522        O530   1.261       .  A
C522       C2523   1.477       .  S
O523        C531   1.266       .  A
O524        C531   1.269       .  A
C525        O532   1.265       .  A
C525        O526   1.272       .  A
C525       C2110   1.494       .  S
C527        O529   1.270       .  A
C527        O533   1.265       .  A
C527       C2100   1.489       .  S
C531       C2120   1.476       .  S
In534       O536   2.222       .  S
In534       O537   2.245       .  S
In534       O545   2.217       .  S
In534       O539   2.283       .  S
In534       O541   2.286       .  S
In534       O542   2.239       .  S
In534       O543   2.200       .  S
In534       O546   2.242       .  S
C535        O541   1.274       .  A
C535        O543   1.260       .  A
C535       C2173   1.487       .  S
O536        C544   1.266       .  A
O537        C544   1.269       .  A
C538        O545   1.263       .  A
C538        O539   1.272       .  A
C538       C2090   1.497       .  S
C540        O542   1.267       .  A
C540        O546   1.264       .  A
C540       C2753   1.488       .  S
C544       C2123   1.486       .  S
In547       O549   2.230       .  S
In547       O550   2.237       .  S
In547       O558   2.215       .  S
In547       O552   2.281       .  S
In547       O554   2.286       .  S
In547       O555   2.229       .  S
In547       O556   2.198       .  S
In547       O559   2.239       .  S
C548        O554   1.272       .  A
C548        O556   1.258       .  A
C548       C2080   1.478       .  S
O549        C557   1.266       .  A
O550        C557   1.266       .  A
C551        O558   1.261       .  A
C551        O552   1.271       .  A
C551       C2113   1.494       .  S
C553        O555   1.265       .  A
C553        O559   1.263       .  A
C553       C2163   1.484       .  S
C557       C2070   1.483       .  S
In560       O562   2.224       .  S
In560       O563   2.228   1_554  S
In560       O571   2.198   1_554  S
In560       O565   2.280       .  S
In560       O567   2.276       .  S
In560       O568   2.214       .  S
In560       O569   2.188       .  S
In560       O572   2.239       .  S
C561        O567   1.275       .  A
C561        O569   1.260       .  A
C561       C2063   1.479       .  S
O562        C570   1.267   1_554  A
O563        C570   1.267       .  A
C564        O571   1.262       .  A
C564        O565   1.273   1_556  A
C564       C2050   1.494       .  S
C566        O568   1.266       .  A
C566        O572   1.265       .  A
C566       C2043   1.481       .  S
C570       C2073   1.475       .  S
In573       O575   2.219       .  S
In573       O576   2.238       .  S
In573       O584   2.203       .  S
In573       O578   2.284       .  S
In573       O580   2.266       .  S
In573       O581   2.240       .  S
In573       O582   2.203       .  S
In573       O585   2.226       .  S
C574        O580   1.275       .  A
C574        O582   1.263       .  A
C574       C2030   1.482       .  S
O575        C583   1.266       .  A
O576        C583   1.269       .  A
C577        O584   1.262       .  A
C577        O578   1.272       .  A
C577       C2053   1.494       .  S
C579        O581   1.269       .  A
C579        O585   1.264       .  A
C579       C2010   1.485       .  S
C583       C2023   1.472       .  S
In586       O588   2.220       .  S
In586       O589   2.242       .  S
In586       O597   2.201       .  S
In586       O591   2.276       .  S
In586       O593   2.272       .  S
In586       O594   2.239       .  S
In586       O595   2.195       .  S
In586       O598   2.219       .  S
C587        O593   1.274       .  A
C587        O595   1.262       .  A
C587       C2000   1.478       .  S
O588        C596   1.264       .  A
O589        C596   1.268       .  A
C590        O597   1.262       .  A
C590        O591   1.271       .  A
C590       C1993   1.487       .  S
C592        O594   1.268       .  A
C592        O598   1.263       .  A
C592       C1980   1.482       .  S
C596       C2020   1.469       .  S
In599       O601   2.239       .  S
In599       O602   2.237       .  S
In599       O610   2.210       .  S
In599       O604   2.283       .  S
In599       O606   2.283       .  S
In599       O607   2.235       .  S
In599       O608   2.191       .  S
In599       O611   2.224       .  S
C600        O606   1.274       .  A
C600        O608   1.260       .  A
C600       C1970   1.479       .  S
O601        C609   1.267       .  A
O602        C609   1.267       .  A
C603        O610   1.263       .  A
C603        O604   1.273       .  A
C603       C2093   1.495       .  S
C605        O607   1.268       .  A
C605        O611   1.264       .  A
C605       C2580   1.480       .  S
C609       C1960   1.482       .  S
In612       O614   2.224       .  S
In612       O615   2.246   1_554  S
In612       O623   2.201   1_554  S
In612       O617   2.266       .  S
In612       O619   2.257       .  S
In612       O620   2.241       .  S
In612       O621   2.191       .  S
In612       O624   2.233       .  S
C613        O619   1.271       .  A
C613        O621   1.261       .  A
C613       C2763   1.469       .  S
O614        C622   1.265   1_554  A
O615        C622   1.269       .  A
C616        O623   1.262       .  A
C616        O617   1.270   1_556  A
C616       C1990   1.487       .  S
C618        O620   1.268       .  A
C618        O624   1.263       .  A
C618       C1950   1.485       .  S
C622       C1963   1.483       .  S
In625       O627   2.223       .  S
In625       O628   2.227       .  S
In625       O636   2.213       .  S
In625       O630   2.273       .  S
In625       O632   2.273       .  S
In625       O633   2.224       .  S
In625       O634   2.196       .  S
In625       O637   2.225       .  S
C626        O632   1.276       .  A
C626        O634   1.263       .  A
C626       C1943   1.482       .  S
O627        C635   1.268       .  A
O628        C635   1.270       .  A
C629        O636   1.264       .  A
C629        O630   1.274       .  A
C629       C1923   1.495   1_545  S
C631        O633   1.269       .  A
C631        O637   1.266       .  A
C631       C1910   1.479       .  S
C635       C1930   1.481   1_655  S
In638       O640   2.223       .  S
In638       O641   2.251       .  S
In638       O649   2.208   1_565  S
In638       O643   2.263       .  S
In638       O645   2.278       .  S
In638       O646   2.236       .  S
In638       O647   2.192       .  S
In638       O650   2.241       .  S
C639        O645   1.272       .  A
C639        O647   1.259       .  A
C639       C2670   1.477       .  S
O640        C648   1.264       .  A
O641        C648   1.268       .  A
C642        O649   1.263   1_565  A
C642        O643   1.270       .  A
C642       C1900   1.483   1_565  S
C644        O646   1.267       .  A
C644        O650   1.263       .  A
C644       C2440   1.486       .  S
C648       C1933   1.481   1_565  S
In651       O653   2.233       .  S
In651       O654   2.250       .  S
In651       O662   2.221       .  S
In651       O656   2.265       .  S
In651       O658   2.270       .  S
In651       O659   2.244       .  S
In651       O660   2.200       .  S
In651       O663   2.219       .  S
C652        O658   1.274       .  A
C652        O660   1.262       .  A
C652       C3063   1.481       .  S
O653        C661   1.266       .  A
O654        C661   1.269       .  A
C655        O662   1.266       .  A
C655        O656   1.272       .  A
C655       C1920   1.495       .  S
C657        O659   1.271       .  A
C657        O663   1.264       .  A
C657       C2633   1.485       .  S
C661       C1890   1.477       .  S
In664       O666   2.235       .  S
In664       O667   2.248       .  S
In664       O675   2.195       .  S
In664       O669   2.274       .  S
In664       O671   2.275       .  S
In664       O672   2.245       .  S
In664       O673   2.177       .  S
In664       O676   2.239       .  S
C665        O671   1.273       .  A
C665        O673   1.260       .  A
C665       C1880   1.475       .  S
O666        C674   1.265       .  A
O667        C674   1.268       .  A
C668        O675   1.261       .  A
C668        O669   1.270       .  A
C668       C1870   1.483       .  S
C670        O672   1.267       .  A
C670        O676   1.263       .  A
C670       C2223   1.488       .  S
C674       C1893   1.489       .  S
In677       O679   2.230       .  S
In677       O680   2.242       .  S
In677       O688   2.204       .  S
In677       O682   2.258       .  S
In677       O684   2.262       .  S
In677       O685   2.237       .  S
In677       O686   2.188       .  S
In677       O689   2.225       .  S
C678        O684   1.270       .  A
C678        O686   1.259       .  A
C678       C1860   1.467       .  S
O679        C687   1.265       .  A
O680        C687   1.267       .  A
C681        O688   1.263       .  A
C681        O682   1.269       .  A
C681       C1873   1.482       .  S
C683        O685   1.267       .  A
C683        O689   1.262       .  A
C683       C3003   1.478       .  S
C687       C1853   1.478       .  S
In690       O692   2.226       .  S
In690       O693   2.242       .  S
In690       O701   2.200   1_565  S
In690       O695   2.284       .  S
In690       O697   2.268       .  S
In690       O698   2.231       .  S
In690       O699   2.199       .  S
In690       O702   2.244       .  S
C691        O697   1.276       .  A
C691        O699   1.263       .  A
C691       C2143   1.486       .  S
O692        C700   1.267       .  A
O693        C700   1.270       .  A
C694        O701   1.264   1_565  A
C694        O695   1.274       .  A
C694       C1843   1.493   1_565  S
C696        O698   1.270       .  A
C696        O702   1.267       .  A
C696       C2083   1.488       .  S
C700       C1850   1.487       .  S
In703       O705   2.227       .  S
In703       O706   2.235       .  S
In703       O714   2.216       .  S
In703       O708   2.278       .  S
In703       O710   2.264       .  S
In703       O711   2.239       .  S
In703       O712   2.204       .  S
In703       O715   2.231       .  S
C704        O710   1.274       .  A
C704        O712   1.260       .  A
C704       C2333   1.477       .  S
O705        C713   1.266       .  A
O706        C713   1.269       .  A
C707        O714   1.264       .  A
C707        O708   1.271       .  A
C707       C1840   1.493       .  S
C709        O711   1.268       .  A
C709        O715   1.263       .  A
C709       C1820   1.486       .  S
C713       C1833   1.481       .  S
In716       O718   2.222       .  S
In716       O719   2.234       .  S
In716       O727   2.206       .  S
In716       O721   2.263       .  S
In716       O723   2.268       .  S
In716       O724   2.246       .  S
In716       O725   2.187       .  S
In716       O728   2.226       .  S
C717        O723   1.273       .  A
C717        O725   1.260       .  A
C717       C2013   1.474       .  S
O718        C726   1.266       .  A
O719        C726   1.270       .  A
C720        O727   1.264       .  A
C720        O721   1.271       .  A
C720       C1903   1.486       .  S
C722        O724   1.268       .  A
C722        O728   1.264       .  A
C722       C1810   1.487       .  S
C726       C1830   1.476       .  S
In729       O731   2.231       .  S
In729       O732   2.239       .  S
In729       O740   2.198       .  S
In729       O734   2.287       .  S
In729       O736   2.271       .  S
In729       O737   2.228       .  S
In729       O738   2.195       .  S
In729       O741   2.244       .  S
C730        O736   1.273       .  A
C730        O738   1.260       .  A
C730       C2213   1.475       .  S
O731        C739   1.267       .  A
O732        C739   1.268       .  A
C733        O740   1.261       .  A
C733        O734   1.271       .  A
C733       C1790   1.490       .  S
C735        O737   1.266       .  A
C735        O741   1.263       .  A
C735       C1883   1.485       .  S
C739       C1803   1.487       .  S
In742       O744   2.234       .  S
In742       O745   2.246       .  S
In742       O753   2.212       .  S
In742       O747   2.277       .  S
In742       O749   2.276       .  S
In742       O750   2.242       .  S
In742       O751   2.205       .  S
In742       O754   2.236       .  S
C743        O749   1.271       .  A
C743        O751   1.258       .  A
C743       C2593   1.478       .  S
O744        C752   1.264       .  A
O745        C752   1.266       .  A
C746        O753   1.263       .  A
C746        O747   1.270       .  A
C746       C1780   1.490       .  S
C748        O750   1.267       .  A
C748        O754   1.262       .  A
C748       C1770   1.485       .  S
C752       C1800   1.473       .  S
In755       O757   2.244       .  S
In755       O758   2.229       .  S
In755       O766   2.204       .  S
In755       O760   2.285       .  S
In755       O762   2.276       .  S
In755       O763   2.236       .  S
In755       O764   2.197       .  S
In755       O767   2.244       .  S
C756        O762   1.271       .  A
C756        O764   1.257       .  A
C756       C2840   1.474       .  S
O757        C765   1.266       .  A
O758        C765   1.265       .  A
C759        O766   1.261       .  A
C759        O760   1.270       .  A
C759       C1783   1.491       .  S
C761        O763   1.265       .  A
C761        O767   1.263       .  A
C761       C2273   1.485       .  S
C765       C1763   1.480       .  S
In768       O770   2.236       .  S
In768       O771   2.235       .  S
In768       O779   2.209       .  S
In768       O773   2.284       .  S
In768       O775   2.279       .  S
In768       O776   2.230       .  S
In768       O777   2.196       .  S
In768       O780   2.236       .  S
C769        O775   1.276       .  A
C769        O777   1.262       .  A
C769       C1750   1.485       .  S
O770        C778   1.268       .  A
O771        C778   1.269       .  A
C772        O779   1.264       .  A
C772        O773   1.274       .  A
C772       C1740   1.497       .  S
C774        O776   1.269       .  A
C774        O780   1.266       .  A
C774       C1730   1.487       .  S
C778       C1760   1.487       .  S
In781       O783   2.218       .  S
In781       O784   2.244       .  S
In781       O792   2.190       .  S
In781       O786   2.278       .  S
In781       O788   2.268       .  S
In781       O789   2.235       .  S
In781       O790   2.191       .  S
In781       O793   2.239       .  S
C782        O788   1.271       .  A
C782        O790   1.260       .  A
C782       C1720   1.475       .  S
O783        C791   1.265       .  A
O784        C791   1.267       .  A
C785        O792   1.261       .  A
C785        O786   1.270       .  A
C785       C1793   1.487       .  S
C787        O789   1.267       .  A
C787        O793   1.263       .  A
C787       C2663   1.484       .  S
C791       C1710   1.476       .  S
In794       O796   2.222       .  S
In794       O797   2.234       .  S
In794       O805   2.198       .  S
In794       O799   2.256       .  S
In794       O801   2.266       .  S
In794       O802   2.233       .  S
In794       O803   2.184       .  S
In794       O806   2.239       .  S
C795        O801   1.270       .  A
C795        O803   1.258       .  A
C795       C1913   1.466       .  S
O796        C804   1.265       .  A
O797        C804   1.267       .  A
C798        O805   1.261       .  A
C798        O799   1.269       .  A
C798       C1703   1.482       .  S
C800        O802   1.265       .  A
C800        O806   1.262       .  A
C800       C1690   1.484       .  S
C804       C1713   1.479       .  S
In807       O809   2.237       .  S
In807       O810   2.222       .  S
In807       O818   2.191       .  S
In807       O812   2.259       .  S
In807       O814   2.279       .  S
In807       O815   2.229       .  S
In807       O816   2.185       .  S
In807       O819   2.235       .  S
C808        O814   1.276       .  A
C808        O816   1.261       .  A
C808       C1680   1.485       .  S
O809        C817   1.268       .  A
O810        C817   1.269       .  A
C811        O818   1.263       .  A
C811        O812   1.273       .  A
C811       C1700   1.485       .  S
C813        O815   1.269       .  A
C813        O819   1.266       .  A
C813       C1660   1.486       .  S
C817       C1670   1.481       .  S
In820       O822   2.234       .  S
In820       O823   2.235       .  S
In820       O831   2.223       .  S
In820       O825   2.274       .  S
In820       O827   2.276       .  S
In820       O828   2.250       .  S
In820       O829   2.207       .  S
In820       O832   2.239       .  S
C821        O827   1.271       .  A
C821        O829   1.259       .  A
C821       C1650   1.480       .  S
O822        C830   1.264       .  A
O823        C830   1.268       .  A
C824        O831   1.263       .  A
C824        O825   1.269       .  A
C824       C1743   1.493       .  S
C826        O828   1.267       .  A
C826        O832   1.263       .  A
C826       C2923   1.489       .  S
C830       C1673   1.480       .  S
In833       O835   2.227       .  S
In833       O836   2.236       .  S
In833       O844   2.198       .  S
In833       O838   2.288       .  S
In833       O840   2.275       .  S
In833       O841   2.231       .  S
In833       O842   2.192       .  S
In833       O845   2.234       .  S
C834        O840   1.276       .  A
C834        O842   1.262       .  A
C834       C2953   1.483       .  S
O835        C843   1.266       .  A
O836        C843   1.268       .  A
C837        O844   1.261       .  A
C837        O838   1.273       .  A
C837       C1630   1.495       .  S
C839        O841   1.268       .  A
C839        O845   1.265       .  A
C839       C1620   1.486       .  S
C843       C1640   1.471       .  S
In846       O848   2.233       .  S
In846       O849   2.237       .  S
In846       O857   2.200       .  S
In846       O851   2.293       .  S
In846       O853   2.273       .  S
In846       O854   2.243       .  S
In846       O855   2.198       .  S
In846       O858   2.243       .  S
C847        O853   1.274       .  A
C847        O855   1.262       .  A
C847       C1663   1.480       .  S
O848        C856   1.266       .  A
O849        C856   1.267       .  A
C850        O857   1.261       .  A
C850        O851   1.272       .  A
C850       C1610   1.490       .  S
C852        O854   1.268       .  A
C852        O858   1.264       .  A
C852       C1603   1.488       .  S
C856       C1643   1.473       .  S
In859       O861   2.234       .  S
In859       O862   2.247       .  S
In859       O870   2.209       .  S
In859       O864   2.293       .  S
In859       O866   2.285       .  S
In859       O867   2.239       .  S
In859       O868   2.203       .  S
In859       O871   2.243       .  S
C860        O866   1.272       .  A
C860        O868   1.259       .  A
C860       C2133   1.482       .  S
O861        C869   1.265       .  A
O862        C869   1.266       .  A
C863        O870   1.260       .  A
C863        O864   1.270       .  A
C863       C1613   1.493   1_565  S
C865        O867   1.265       .  A
C865        O871   1.262       .  A
C865       C3033   1.486       .  S
C869       C1590   1.473       .  S
In872       O874   2.228       .  S
In872       O875   2.233       .  S
In872       O883   2.190       .  S
In872       O877   2.265       .  S
In872       O879   2.253       .  S
In872       O880   2.233       .  S
In872       O881   2.182       .  S
In872       O884   2.224       .  S
C873        O879   1.275       .  A
C873        O881   1.264       .  A
C873       C1583   1.476       .  S
O874        C882   1.266       .  A
O875        C882   1.270       .  A
C876        O883   1.263       .  A
C876        O877   1.272       .  A
C876       C1570   1.487   1_545  S
C878        O880   1.270       .  A
C878        O884   1.265       .  A
C878       C2060   1.485       .  S
C882       C1593   1.476       .  S
In885       O887   2.232       .  S
In885       O888   2.218       .  S
In885       O896   2.213       .  S
In885       O890   2.278       .  S
In885       O892   2.282       .  S
In885       O893   2.229       .  S
In885       O894   2.189       .  S
In885       O897   2.236       .  S
C886        O892   1.275       .  A
C886        O894   1.259       .  A
C886       C2103   1.479       .  S
O887        C895   1.266       .  A
O888        C895   1.267       .  A
C889        O896   1.262       .  A
C889        O890   1.272       .  A
C889       C1553   1.495       .  S
C891        O893   1.266       .  A
C891        O897   1.265       .  A
C891       C2543   1.485       .  S
C895       C1560   1.471       .  S
In898       O900   2.222       .  S
In898       O901   2.221       .  S
In898       O909   2.192       .  S
In898       O903   2.263       .  S
In898       O905   2.269       .  S
In898       O906   2.240       .  S
In898       O907   2.190       .  S
In898       O910   2.213       .  S
C899        O905   1.274       .  A
C899        O907   1.262       .  A
C899       C2363   1.479       .  S
O900        C908   1.266       .  A
O901        C908   1.269       .  A
C902        O909   1.263       .  A
C902        O903   1.272       .  A
C902       C1573   1.486       .  S
C904        O906   1.269       .  A
C904        O910   1.264       .  A
C904       C2203   1.481       .  S
C908       C1563   1.478       .  S
In911       O913   2.222       .  S
In911       O914   2.251       .  S
In911       O922   2.203   1_565  S
In911       O916   2.284       .  S
In911       O918   2.279       .  S
In911       O919   2.223       .  S
In911       O920   2.179       .  S
In911       O923   2.234       .  S
C912        O918   1.275       .  A
C912        O920   1.261       .  A
C912       C2643   1.482       .  S
O913        C921   1.266       .  A
O914        C921   1.268       .  A
C915        O922   1.263   1_565  A
C915        O916   1.272       .  A
C915       C1633   1.494   1_565  S
C917        O919   1.268       .  A
C917        O923   1.266       .  A
C917       C1723   1.483       .  S
C921       C1540   1.489       .  S
In924       O926   2.230       .  S
In924       O927   2.255       .  S
In924       O935   2.224       .  S
In924       O929   2.273       .  S
In924       O931   2.273       .  S
In924       O932   2.239       .  S
In924       O933   2.195       .  S
In924       O936   2.236       .  S
C925        O931   1.271       .  A
C925        O933   1.258       .  A
C925       C1533   1.473       .  S
O926        C934   1.264       .  A
O927        C934   1.266       .  A
C928        O935   1.264       .  A
C928        O929   1.269       .  A
C928       C1550   1.494   1_545  S
C930        O932   1.267       .  A
C930        O936   1.262       .  A
C930       C2413   1.486       .  S
C934       C1543   1.477       .  S
In937       O939   2.211       .  S
In937       O940   2.229       .  S
In937       O948   2.195       .  S
In937       O942   2.255       .  S
In937       O944   2.274       .  S
In937       O945   2.224       .  S
In937       O946   2.179       .  S
In937       O949   2.229       .  S
C938        O944   1.274       .  A
C938        O946   1.261       .  A
C938       C2983   1.479       .  S
O939        C947   1.266       .  A
O940        C947   1.269       .  A
C941        O948   1.264       .  A
C941        O942   1.273       .  A
C941       C1513   1.483       .  S
C943        O945   1.268       .  A
C943        O949   1.265       .  A
C943       C1863   1.480       .  S
C947       C1520   1.466       .  S
In950       O952   2.224       .  S
In950       O953   2.237       .  S
In950       O961   2.193       .  S
In950       O955   2.281       .  S
In950       O957   2.265       .  S
In950       O958   2.230       .  S
In950       O959   2.188       .  S
In950       O962   2.235       .  S
C951        O957   1.271       .  A
C951        O959   1.259       .  A
C951       C2040   1.471       .  S
O952        C960   1.265       .  A
O953        C960   1.266       .  A
C954        O961   1.261       .  A
C954        O955   1.269       .  A
C954       C1503   1.488       .  S
C956        O958   1.265       .  A
C956        O962   1.263       .  A
C956       C1580   1.481       .  S
C960       C1523   1.482   1_554  S
In963       O965   2.213       .  S
In963       O966   2.238       .  S
In963       O974   2.200       .  S
In963       O968   2.256       .  S
In963       O970   2.248       .  S
In963       O971   2.232       .  S
In963       O972   2.190       .  S
In963       O975   2.232       .  S
C964        O970   1.275       .  A
C964        O972   1.264       .  A
C964       C1493   1.476       .  S
O965        C973   1.265       .  A
O966        C973   1.270       .  A
C967        O974   1.264       .  A
C967        O968   1.272       .  A
C967       C1510   1.481       .  S
C969        O971   1.271       .  A
C969        O975   1.265       .  A
C969       C2003   1.487       .  S
C973       C1480   1.468       .  S
In976       O978   2.227       .  S
In976       O979   2.232       .  S
In976       O987   2.198       .  S
In976       O981   2.275       .  S
In976       O983   2.267       .  S
In976       O984   2.218       .  S
In976       O985   2.182       .  S
In976       O988   2.237       .  S
C977        O983   1.276       .  A
C977        O985   1.262       .  A
C977       C1823   1.480       .  S
O978        C986   1.265       .  A
O979        C986   1.267       .  A
C980        O987   1.262       .  A
C980        O981   1.272       .  A
C980       C1470   1.483       .  S
C982        O984   1.268       .  A
C982        O988   1.266       .  A
C982       C2353   1.482       .  S
C986       C1483   1.473       .  S
In989       O991   2.227       .  S
In989       O992   2.236       .  S
In989      O1000   2.204       .  S
In989       O994   2.264       .  S
In989       O996   2.272       .  S
In989       O997   2.237       .  S
In989       O998   2.191       .  S
In989      O1001   2.225       .  S
C990        O996   1.273       .  A
C990        O998   1.261       .  A
C990       C1733   1.476       .  S
O991        C999   1.266       .  A
O992        C999   1.269       .  A
C993       O1000   1.263       .  A
C993        O994   1.271       .  A
C993       C1473   1.484       .  S
C995        O997   1.268       .  A
C995       O1001   1.263       .  A
C995       C1450   1.482       .  S
C999       C1460   1.479       .  S
In1002     O1004   2.235       .  S
In1002     O1005   2.232       .  S
In1002     O1013   2.211       .  S
In1002     O1007   2.284       .  S
In1002     O1009   2.271       .  S
In1002     O1010   2.244       .  S
In1002     O1011   2.210       .  S
In1002     O1014   2.237       .  S
C1003      O1009   1.271       .  A
C1003      O1011   1.258       .  A
C1003      C2453   1.476       .  S
O1004      C1012   1.266       .  A
O1005      C1012   1.267       .  A
C1006      O1013   1.261       .  A
C1006      O1007   1.270       .  A
C1006      C1440   1.493       .  S
C1008      O1010   1.266       .  A
C1008      O1014   1.262       .  A
C1008      C2833   1.487       .  S
C1012      C1463   1.481       .  S
In1015     O1017   2.243       .  S
In1015     O1018   2.251       .  S
In1015     O1026   2.192       .  S
In1015     O1020   2.285       .  S
In1015     O1022   2.270       .  S
In1015     O1023   2.250       .  S
In1015     O1024   2.198       .  S
In1015     O1027   2.242       .  S
C1016      O1022   1.273       .  A
C1016      O1024   1.261       .  A
C1016      C2870   1.478       .  S
O1017      C1025   1.266       .  A
O1018      C1025   1.269       .  A
C1019      O1026   1.262       .  A
C1019      O1020   1.271       .  A
C1019      C1500   1.490       .  S
C1021      O1023   1.268       .  A
C1021      O1027   1.263       .  A
C1021      C2943   1.491       .  S
C1025      C1430   1.493       .  S
In1028     O1030   2.244       .  S
In1028     O1031   2.241       .  S
In1028     O1039   2.215       .  S
In1028     O1033   2.271       .  S
In1028     O1035   2.275       .  S
In1028     O1036   2.245       .  S
In1028     O1037   2.192       .  S
In1028     O1040   2.251       .  S
C1029      O1035   1.274       .  A
C1029      O1037   1.260       .  A
C1029      C1600   1.479       .  S
O1030      C1038   1.266       .  A
O1031      C1038   1.269       .  A
C1032      O1039   1.264       .  A
C1032      O1033   1.272       .  A
C1032      C1443   1.494       .  S
C1034      O1036   1.269       .  A
C1034      O1040   1.265       .  A
C1034      C1683   1.494       .  S
C1038      C1433   1.482       .  S
In1041     O1043   2.227       .  S
In1041     O1044   2.235       .  S
In1041     O1052   2.200       .  S
In1041     O1046   2.291       .  S
In1041     O1048   2.280       .  S
In1041     O1049   2.233       .  S
In1041     O1050   2.191       .  S
In1041     O1053   2.245       .  S
C1042      O1048   1.275       .  A
C1042      O1050   1.259       .  A
C1042      C2890   1.478       .  S
O1043      C1051   1.266       .  A
O1044      C1051   1.268       .  A
C1045      O1052   1.262       .  A
C1045      O1046   1.273       .  A
C1045      C1410   1.494       .  S
C1047      O1049   1.266       .  A
C1047      O1053   1.265       .  A
C1047      C1653   1.487       .  S
C1051      C1423   1.476       .  S
In1054     O1056   2.229       .  S
In1054     O1057   2.242       .  S
In1054     O1065   2.204       .  S
In1054     O1059   2.272       .  S
In1054     O1061   2.268       .  S
In1054     O1062   2.237       .  S
In1054     O1063   2.199       .  S
In1054     O1066   2.229       .  S
C1055      O1061   1.273       .  A
C1055      O1063   1.261       .  A
C1055      C1623   1.478       .  S
O1056      C1064   1.266       .  A
O1057      C1064   1.268       .  A
C1058      O1065   1.263       .  A
C1058      O1059   1.271       .  A
C1058      C1400   1.490       .  S
C1060      O1062   1.268       .  A
C1060      O1066   1.263       .  A
C1060      C2973   1.484       .  S
C1064      C1420   1.485       .  S
In1067     O1069   2.236       .  S
In1067     O1070   2.237       .  S
In1067     O1078   2.205       .  S
In1067     O1072   2.291       .  S
In1067     O1074   2.272       .  S
In1067     O1075   2.238       .  S
In1067     O1076   2.202       .  S
In1067     O1079   2.251       .  S
C1068      O1074   1.272       .  A
C1068      O1076   1.258       .  A
C1068      C1813   1.478       .  S
O1069      C1077   1.265       .  A
O1070      C1077   1.267       .  A
C1071      O1078   1.261       .  A
C1071      O1072   1.270       .  A
C1071      C1383   1.493       .  S
C1073      O1075   1.266       .  A
C1073      O1079   1.264       .  A
C1073      C2033   1.490       .  S
C1077      C1390   1.480       .  S
In1080     O1082   2.235       .  S
In1080     O1083   2.237       .  S
In1080     O1091   2.225       .  S
In1080     O1085   2.298       .  S
In1080     O1087   2.285       .  S
In1080     O1088   2.245       .  S
In1080     O1089   2.206       .  S
In1080     O1092   2.238       .  S
C1081      O1087   1.273       .  A
C1081      O1089   1.258       .  A
C1081      C1370   1.482       .  S
O1082      C1090   1.266       .  A
O1083      C1090   1.267       .  A
C1084      O1091   1.263       .  A
C1084      O1085   1.271       .  A
C1084      C1363   1.503       .  S
C1086      O1088   1.267       .  A
C1086      O1092   1.264       .  A
C1086      C2323   1.486       .  S
C1090      C1393   1.481       .  S
In1093     O1095   2.238       .  S
In1093     O1096   2.254       .  S
In1093     O1104   2.211   1_655  S
In1093     O1098   2.284       .  S
In1093     O1100   2.275       .  S
In1093     O1101   2.252       .  S
In1093     O1102   2.205       .  S
In1093     O1105   2.252       .  S
C1094      O1100   1.269       .  A
C1094      O1102   1.258       .  A
C1094      C3103   1.473       .  S
O1095      C1103   1.265       .  A
O1096      C1103   1.268       .  A
C1097      O1104   1.262       .  A
C1097      O1098   1.268   1_455  A
C1097      C1380   1.491       .  S
C1099      O1101   1.265       .  A
C1099      O1105   1.262       .  A
C1099      C1340   1.490       .  S
C1103      C1350   1.490   1_655  S
In1106     O1108   2.237       .  S
In1106     O1109   2.240       .  S
In1106     O1117   2.201       .  S
In1106     O1111   2.282       .  S
In1106     O1113   2.279       .  S
In1106     O1114   2.232       .  S
In1106     O1115   2.191       .  S
In1106     O1118   2.236       .  S
C1107      O1113   1.273       .  A
C1107      O1115   1.259       .  A
C1107      C1953   1.478       .  S
O1108      C1116   1.266       .  A
O1109      C1116   1.267       .  A
C1110      O1117   1.262       .  A
C1110      O1111   1.272       .  A
C1110      C1403   1.492       .  S
C1112      O1114   1.267       .  A
C1112      O1118   1.264       .  A
C1112      C2783   1.485       .  S
C1116      C1353   1.481       .  S
In1119     O1121   2.230       .  S
In1119     O1122   2.251   1_655  S
In1119     O1130   2.215   1_655  S
In1119     O1124   2.286       .  S
In1119     O1126   2.263       .  S
In1119     O1127   2.251   1_655  S
In1119     O1128   2.195       .  S
In1119     O1131   2.230       .  S
C1120      O1126   1.275       .  A
C1120      O1128   1.263       .  A
C1120      C1693   1.481       .  S
O1121      C1129   1.265   1_655  A
O1122      C1129   1.270       .  A
C1123      O1130   1.264       .  A
C1123      O1124   1.272   1_455  A
C1123      C1360   1.500       .  S
C1125      O1127   1.270   1_655  A
C1125      O1131   1.264       .  A
C1125      C1940   1.490       .  S
C1129      C1330   1.475       .  S
In1132     O1134   2.219       .  S
In1132     O1135   2.254       .  S
In1132     O1143   2.206       .  S
In1132     O1137   2.282       .  S
In1132     O1139   2.270       .  S
In1132     O1140   2.248       .  S
In1132     O1141   2.194       .  S
In1132     O1144   2.233       .  S
C1133      O1139   1.274       .  A
C1133      O1141   1.262       .  A
C1133      C2390   1.480       .  S
O1134      C1142   1.264       .  A
O1135      C1142   1.269       .  A
C1136      O1143   1.263       .  A
C1136      O1137   1.270       .  A
C1136      C1413   1.490       .  S
C1138      O1140   1.268       .  A
C1138      O1144   1.264       .  A
C1138      C1530   1.488       .  S
C1142      C1333   1.478       .  S
In1145     O1147   2.229       .  S
In1145     O1148   2.246       .  S
In1145     O1156   2.188       .  S
In1145     O1150   2.263       .  S
In1145     O1152   2.260       .  S
In1145     O1153   2.240       .  S
In1145     O1154   2.180       .  S
In1145     O1157   2.234       .  S
C1146      O1152   1.274       .  A
C1146      O1154   1.263       .  A
C1146      C1773   1.474       .  S
O1147      C1155   1.266       .  A
O1148      C1155   1.271       .  A
C1149      O1156   1.263       .  A
C1149      O1150   1.273       .  A
C1149      C1310   1.487       .  S
C1151      O1153   1.270       .  A
C1151      O1157   1.265       .  A
C1151      C2603   1.487       .  S
C1155      C1320   1.490       .  S
In1158     O1160   2.241       .  S
In1158     O1161   2.235       .  S
In1158     O1169   2.196       .  S
In1158     O1163   2.280       .  S
In1158     O1165   2.279       .  S
In1158     O1166   2.219       .  S
In1158     O1167   2.185       .  S
In1158     O1170   2.241       .  S
C1159      O1165   1.275       .  A
C1159      O1167   1.260       .  A
C1159      C3043   1.482       .  S
O1160      C1168   1.266       .  A
O1161      C1168   1.266       .  A
C1162      O1169   1.262       .  A
C1162      O1163   1.273       .  A
C1162      C1300   1.488       .  S
C1164      O1166   1.267       .  A
C1164      O1170   1.266       .  A
C1164      C2253   1.484       .  S
C1168      C1323   1.477       .  S
In1171     O1173   2.233       .  S
In1171     O1174   2.240       .  S
In1171     O1182   2.213       .  S
In1171     O1176   2.272       .  S
In1171     O1178   2.269       .  S
In1171     O1179   2.246       .  S
In1171     O1180   2.194       .  S
In1171     O1183   2.247       .  S
C1172      O1178   1.271       .  A
C1172      O1180   1.259       .  A
C1172      C1453   1.472       .  S
O1173      C1181   1.265       .  A
O1174      C1181   1.268       .  A
C1175      O1182   1.262       .  A
C1175      O1176   1.269       .  A
C1175      C1303   1.487       .  S
C1177      O1179   1.267       .  A
C1177      O1183   1.263       .  A
C1177      C1753   1.491       .  S
C1181      C1290   1.480       .  S
In1184     O1186   2.217       .  S
In1184     O1187   2.233       .  S
In1184     O1195   2.191       .  S
In1184     O1189   2.273       .  S
In1184     O1191   2.266       .  S
In1184     O1192   2.229       .  S
In1184     O1193   2.187       .  S
In1184     O1196   2.222       .  S
C1185      O1191   1.273       .  A
C1185      O1193   1.261       .  A
C1185      C2283   1.474       .  S
O1186      C1194   1.266       .  A
O1187      C1194   1.268       .  A
C1188      O1195   1.262       .  A
C1188      O1189   1.272       .  A
C1188      C1280   1.487       .  S
C1190      O1192   1.268       .  A
C1190      O1196   1.264       .  A
C1190      C2503   1.476       .  S
C1194      C1293   1.477       .  S
In1197     O1199   2.222       .  S
In1197     O1200   2.246       .  S
In1197     O1208   2.203       .  S
In1197     O1202   2.258       .  S
In1197     O1204   2.267       .  S
In1197     O1205   2.248       .  S
In1197     O1206   2.194       .  S
In1197     O1209   2.235       .  S
C1198      O1204   1.273       .  A
C1198      O1206   1.261       .  A
C1198      C1343   1.479       .  S
O1199      C1207   1.265       .  A
O1200      C1207   1.270       .  A
C1201      O1208   1.264       .  A
C1201      O1202   1.271       .  A
C1201      C1313   1.487       .  S
C1203      O1205   1.270       .  A
C1203      O1209   1.264       .  A
C1203      C3123   1.491       .  S
C1207      C1270   1.480       .  S
In1210     O1212   2.237       .  S
In1210     O1213   2.241       .  S
In1210     O1221   2.198       .  S
In1210     O1215   2.276       .  S
In1210     O1217   2.269       .  S
In1210     O1218   2.233       .  S
In1210     O1219   2.186       .  S
In1210     O1222   2.242       .  S
C1211      O1217   1.273       .  A
C1211      O1219   1.259       .  A
C1211      C2560   1.474       .  S
O1212      C1220   1.265       .  A
O1213      C1220   1.267       .  A
C1214      O1221   1.262       .  A
C1214      O1215   1.270       .  A
C1214      C1263   1.482       .  S
C1216      O1218   1.268       .  A
C1216      O1222   1.264       .  A
C1216      C1973   1.487       .  S
C1220      C1273   1.485       .  S
In1223     O1225   2.233       .  S
In1223     O1226   2.245       .  S
In1223     O1234   2.202       .  S
In1223     O1228   2.274       .  S
In1223     O1230   2.264       .  S
In1223     O1231   2.255       .  S
In1223     O1232   2.191       .  S
In1223     O1235   2.245       .  S
C1224      O1230   1.271       .  A
C1224      O1232   1.260       .  A
C1224      C2313   1.471       .  S
O1225      C1233   1.265       .  A
O1226      C1233   1.269       .  A
C1227      O1234   1.262       .  A
C1227      O1228   1.269       .  A
C1227      C1260   1.483       .  S
C1229      O1231   1.267       .  A
C1229      O1235   1.262       .  A
C1229      C1373   1.490       .  S
C1233      C1250   1.483       .  S
In1236     O1238   2.229       .  S
In1236     O1239   2.233       .  S
In1236     O1247   2.197       .  S
In1236     O1241   2.264       .  S
In1236     O1243   2.258       .  S
In1236     O1244   2.236       .  S
In1236     O1245   2.187       .  S
In1236     O1248   2.228       .  S
C1237      O1243   1.273       .  A
C1237      O1245   1.260       .  A
C1237      C1983   1.474       .  S
O1238      C1246   1.265       .  A
O1239      C1246   1.269       .  A
C1240      O1247   1.264       .  A
C1240      O1241   1.271       .  A
C1240      C1283   1.487       .  S
C1242      O1244   1.268       .  A
C1242      O1248   1.264       .  A
C1242      C1490   1.485       .  S
C1246      C1253   1.477       .  S
C1249      C1250   1.409       .  A
C1249      C1254   1.401       .  A
C1249      F1256   1.358       .  S
C1250      C1251   1.408       .  A
C1251      C1252   1.399       .  A
C1251      F1258   1.357       .  S
C1252      C1253   1.405       .  A
C1252      F1257   1.358       .  S
C1253      C1254   1.405       .  A
C1254      F1255   1.358       .  S
C1259      C1260   1.406       .  A
C1259      C1264   1.392       .  A
C1259      F1266   1.359       .  S
C1260      C1261   1.410       .  A
C1261      C1262   1.410       .  A
C1261      F1268   1.357       .  S
C1262      C1263   1.409       .  A
C1262      F1267   1.357       .  S
C1263      C1264   1.406       .  A
C1264      F1265   1.359       .  S
C1269      C1270   1.406   1_455  A
C1269      C1274   1.401       .  A
C1269      F1276   1.358   1_455  S
C1270      C1271   1.405   1_655  A
C1271      C1272   1.401       .  A
C1271      F1278   1.358       .  S
C1272      C1273   1.410       .  A
C1272      F1277   1.358       .  S
C1273      C1274   1.408       .  A
C1274      F1275   1.358       .  S
C1279      C1280   1.409       .  A
C1279      C1284   1.391       .  A
C1279      F1286   1.358       .  S
C1280      C1281   1.410       .  A
C1281      C1282   1.408       .  A
C1281      F1288   1.357       .  S
C1282      C1283   1.410       .  A
C1282      F1287   1.357       .  S
C1283      C1284   1.408       .  A
C1284      F1285   1.358       .  S
C1289      C1290   1.407       .  A
C1289      C1294   1.398       .  A
C1289      F1296   1.358       .  S
C1290      C1291   1.408       .  A
C1291      C1292   1.400       .  A
C1291      F1298   1.358       .  S
C1292      C1293   1.407       .  A
C1292      F1297   1.358       .  S
C1293      C1294   1.406       .  A
C1294      F1295   1.358       .  S
C1299      C1300   1.409       .  A
C1299      C1304   1.394       .  A
C1299      F1306   1.359       .  S
C1300      C1301   1.409       .  A
C1301      C1302   1.410       .  A
C1301      F1308   1.357       .  S
C1302      C1303   1.410       .  A
C1302      F1307   1.357       .  S
C1303      C1304   1.407       .  A
C1304      F1305   1.359       .  S
C1309      C1310   1.409       .  A
C1309      C1314   1.407       .  A
C1309      F1316   1.357       .  S
C1310      C1311   1.409       .  A
C1311      C1312   1.392       .  A
C1311      F1318   1.358       .  S
C1312      C1313   1.408       .  A
C1312      F1317   1.358       .  S
C1313      C1314   1.410       .  A
C1314      F1315   1.357       .  S
C1319      C1320   1.410       .  A
C1319      C1324   1.401       .  A
C1319      F1326   1.358       .  S
C1320      C1321   1.413       .  A
C1321      C1322   1.402       .  A
C1321      F1328   1.357       .  S
C1322      C1323   1.402       .  A
C1322      F1327   1.358       .  S
C1323      C1324   1.405       .  A
C1324      F1325   1.358       .  S
C1329      C1330   1.401       .  A
C1329      C1334   1.400       .  A
C1329      F1336   1.357       .  S
C1330      C1331   1.408       .  A
C1331      C1332   1.403       .  A
C1331      F1338   1.358   1_455  S
C1332      C1333   1.405       .  A
C1332      F1337   1.358   1_455  S
C1333      C1334   1.409       .  A
C1334      F1335   1.358       .  S
C1339      C1340   1.407       .  A
C1339      C1344   1.397       .  A
C1339      F1346   1.357   1_655  S
C1340      C1341   1.414       .  A
C1341      C1342   1.405       .  A
C1341      F1348   1.357       .  S
C1342      C1343   1.404       .  A
C1342      F1347   1.358       .  S
C1343      C1344   1.407       .  A
C1344      F1345   1.359       .  S
C1349      C1350   1.410       .  A
C1349      C1354   1.402       .  A
C1349      F1356   1.358       .  S
C1350      C1351   1.411       .  A
C1351      C1352   1.401       .  A
C1351      F1358   1.357   1_455  S
C1352      C1353   1.404   1_556  A
C1352      F1357   1.358   1_556  S
C1353      C1354   1.407   1_554  A
C1354      F1355   1.358       .  S
C1359      C1360   1.409       .  A
C1359      C1364   1.397       .  A
C1359      F1366   1.358       .  S
C1360      C1361   1.412       .  A
C1361      C1362   1.415       .  A
C1361      F1368   1.358       .  S
C1362      C1363   1.414       .  A
C1362      F1367   1.357       .  S
C1363      C1364   1.410       .  A
C1364      F1365   1.358       .  S
C1369      C1370   1.408       .  A
C1369      C1374   1.401       .  A
C1369      F1376   1.358       .  S
C1370      C1371   1.404       .  A
C1371      C1372   1.405       .  A
C1371      F1378   1.357       .  S
C1372      C1373   1.413       .  A
C1372      F1377   1.357       .  S
C1373      C1374   1.407       .  A
C1374      F1375   1.358       .  S
C1379      C1380   1.407       .  A
C1379      C1384   1.393       .  A
C1379      F1386   1.358       .  S
C1380      C1381   1.411       .  A
C1381      C1382   1.413       .  A
C1381      F1388   1.358   1_455  S
C1382      C1383   1.412       .  A
C1382      F1387   1.357       .  S
C1383      C1384   1.409       .  A
C1384      F1385   1.358       .  S
C1389      C1390   1.407       .  A
C1389      C1394   1.399       .  A
C1389      F1396   1.358       .  S
C1390      C1391   1.407       .  A
C1391      C1392   1.401       .  A
C1391      F1398   1.358       .  S
C1392      C1393   1.407       .  A
C1392      F1397   1.358       .  S
C1393      C1394   1.408       .  A
C1394      F1395   1.358       .  S
C1399      C1400   1.410   1_455  A
C1399      C1404   1.410       .  A
C1399      F1406   1.357       .  S
C1400      C1401   1.408       .  A
C1401      C1402   1.393       .  A
C1401      F1408   1.358       .  S
C1402      C1403   1.409   1_655  A
C1402      F1407   1.358       .  S
C1403      C1404   1.411       .  A
C1404      F1405   1.357       .  S
C1409      C1410   1.409       .  A
C1409      C1414   1.393   1_655  A
C1409      F1416   1.358       .  S
C1410      C1411   1.412   1_655  A
C1411      C1412   1.413       .  A
C1411      F1418   1.357       .  S
C1412      C1413   1.411       .  A
C1412      F1417   1.357       .  S
C1413      C1414   1.406       .  A
C1414      F1415   1.359   1_455  S
C1419      C1420   1.410       .  A
C1419      C1424   1.401       .  A
C1419      F1426   1.358       .  S
C1420      C1421   1.410       .  A
C1421      C1422   1.399       .  A
C1421      F1428   1.357       .  S
C1422      C1423   1.403       .  A
C1422      F1427   1.358       .  S
C1423      C1424   1.406       .  A
C1424      F1425   1.358       .  S
C1429      C1430   1.410       .  A
C1429      C1434   1.402       .  A
C1429      F1436   1.357       .  S
C1430      C1431   1.413       .  A
C1431      C1432   1.404       .  A
C1431      F1438   1.358       .  S
C1432      C1433   1.405       .  A
C1432      F1437   1.358       .  S
C1433      C1434   1.404       .  A
C1434      F1435   1.358       .  S
C1439      C1440   1.410       .  A
C1439      C1444   1.410       .  A
C1439      F1446   1.357       .  S
C1440      C1441   1.409       .  A
C1441      C1442   1.396       .  A
C1441      F1448   1.358       .  S
C1442      C1443   1.409       .  A
C1442      F1447   1.358       .  S
C1443      C1444   1.411       .  A
C1444      F1445   1.357       .  S
C1449      C1450   1.412       .  A
C1449      C1454   1.401       .  A
C1449      F1456   1.358       .  S
C1450      C1451   1.406       .  A
C1451      C1452   1.396       .  A
C1451      F1458   1.358       .  S
C1452      C1453   1.406       .  A
C1452      F1457   1.359       .  S
C1453      C1454   1.402       .  A
C1454      F1455   1.358       .  S
C1459      C1460   1.407       .  A
C1459      C1464   1.400       .  A
C1459      F1466   1.358       .  S
C1460      C1461   1.406       .  A
C1461      C1462   1.399       .  A
C1461      F1468   1.358       .  S
C1462      C1463   1.409       .  A
C1462      F1467   1.358       .  S
C1463      C1464   1.408       .  A
C1464      F1465   1.358       .  S
C1469      C1470   1.408       .  A
C1469      C1474   1.408       .  A
C1469      F1476   1.357       .  S
C1470      C1471   1.407       .  A
C1471      C1472   1.394       .  A
C1471      F1478   1.359       .  S
C1472      C1473   1.407       .  A
C1472      F1477   1.359       .  S
C1473      C1474   1.409       .  A
C1474      F1475   1.357       .  S
C1479      C1480   1.401       .  A
C1479      C1484   1.401       .  A
C1479      F1486   1.358       .  S
C1480      C1481   1.405       .  A
C1481      C1482   1.397       .  A
C1481      F1488   1.358       .  S
C1482      C1483   1.403       .  A
C1482      F1487   1.358       .  S
C1483      C1484   1.409       .  A
C1484      F1485   1.358       .  S
C1489      C1490   1.412       .  A
C1489      C1494   1.401       .  A
C1489      F1496   1.357       .  S
C1490      C1491   1.407       .  A
C1491      C1492   1.396       .  A
C1491      F1498   1.358       .  S
C1492      C1493   1.408       .  A
C1492      F1497   1.359       .  S
C1493      C1494   1.403       .  A
C1494      F1495   1.358       .  S
C1499      C1500   1.408       .  A
C1499      C1504   1.389       .  A
C1499      F1506   1.358       .  S
C1500      C1501   1.412       .  A
C1501      C1502   1.412       .  A
C1501      F1508   1.357       .  S
C1502      C1503   1.411       .  A
C1502      F1507   1.358       .  S
C1503      C1504   1.407       .  A
C1504      F1505   1.358       .  S
C1509      C1510   1.407       .  A
C1509      C1514   1.394       .  A
C1509      F1516   1.359       .  S
C1510      C1511   1.408       .  A
C1511      C1512   1.405       .  A
C1511      F1518   1.357       .  S
C1512      C1513   1.408       .  A
C1512      F1517   1.357       .  S
C1513      C1514   1.409       .  A
C1514      F1515   1.359       .  S
C1519      C1520   1.400       .  A
C1519      C1524   1.396       .  A
C1519      F1526   1.358       .  S
C1520      C1521   1.403       .  A
C1521      C1522   1.399       .  A
C1521      F1528   1.358       .  S
C1522      C1523   1.411       .  A
C1522      F1527   1.358   1_556  S
C1523      C1524   1.410       .  A
C1524      F1525   1.357       .  S
C1529      C1530   1.408       .  A
C1529      C1534   1.399       .  A
C1529      F1536   1.358       .  S
C1530      C1531   1.413       .  A
C1531      C1532   1.402       .  A
C1531      F1538   1.357       .  S
C1532      C1533   1.401       .  A
C1532      F1537   1.358       .  S
C1533      C1534   1.406       .  A
C1534      F1535   1.359       .  S
C1539      C1540   1.410   1_455  A
C1539      C1544   1.397       .  A
C1539      F1546   1.357       .  S
C1540      C1541   1.412   1_665  A
C1541      C1542   1.405       .  A
C1541      F1548   1.358   1_455  S
C1542      C1543   1.408       .  A
C1542      F1547   1.358       .  S
C1543      C1544   1.401   1_545  A
C1544      F1545   1.357       .  S
C1549      C1550   1.411   1_545  A
C1549      C1554   1.410   1_545  A
C1549      F1556   1.357       .  S
C1550      C1551   1.409       .  A
C1551      C1552   1.397       .  A
C1551      F1558   1.358       .  S
C1552      C1553   1.411       .  A
C1552      F1557   1.358       .  S
C1553      C1554   1.410       .  A
C1554      F1555   1.357       .  S
C1559      C1560   1.404       .  A
C1559      C1564   1.395       .  A
C1559      F1566   1.358       .  S
C1560      C1561   1.404       .  A
C1561      C1562   1.400       .  A
C1561      F1568   1.358       .  S
C1562      C1563   1.410       .  A
C1562      F1567   1.358       .  S
C1563      C1564   1.407       .  A
C1564      F1565   1.358       .  S
C1569      C1570   1.409       .  A
C1569      C1574   1.392       .  A
C1569      F1576   1.359       .  S
C1570      C1571   1.409   1_565  A
C1571      C1572   1.407   1_545  A
C1571      F1578   1.357       .  S
C1572      C1573   1.409       .  A
C1572      F1577   1.357       .  S
C1573      C1574   1.409       .  A
C1574      F1575   1.359       .  S
C1579      C1580   1.406       .  A
C1579      C1584   1.394       .  A
C1579      F1586   1.358       .  S
C1580      C1581   1.412       .  A
C1581      C1582   1.402       .  A
C1581      F1588   1.358       .  S
C1582      C1583   1.404       .  A
C1582      F1587   1.358       .  S
C1583      C1584   1.408       .  A
C1584      F1585   1.359       .  S
C1589      C1590   1.404       .  A
C1589      C1594   1.398       .  A
C1589      F1596   1.356       .  S
C1590      C1591   1.403   1_565  A
C1591      C1592   1.403       .  A
C1591      F1598   1.358       .  S
C1592      C1593   1.410       .  A
C1592      F1597   1.358       .  S
C1593      C1594   1.403   1_545  A
C1594      F1595   1.358       .  S
C1599      C1600   1.407       .  A
C1599      C1604   1.398       .  A
C1599      F1606   1.359       .  S
C1600      C1601   1.404       .  A
C1601      C1602   1.405       .  A
C1601      F1608   1.358       .  S
C1602      C1603   1.413       .  A
C1602      F1607   1.358       .  S
C1603      C1604   1.407       .  A
C1604      F1605   1.358       .  S
C1609      C1610   1.407       .  A
C1609      C1614   1.393       .  A
C1609      F1616   1.359       .  S
C1610      C1611   1.410       .  A
C1611      C1612   1.414   1_545  A
C1611      F1618   1.357   1_545  S
C1612      C1613   1.412   1_565  A
C1612      F1617   1.357       .  S
C1613      C1614   1.408       .  A
C1614      F1615   1.358       .  S
C1619      C1620   1.407       .  A
C1619      C1624   1.397       .  A
C1619      F1626   1.358       .  S
C1620      C1621   1.413       .  A
C1621      C1622   1.403       .  A
C1621      F1628   1.358       .  S
C1622      C1623   1.404       .  A
C1622      F1627   1.358       .  S
C1623      C1624   1.407       .  A
C1624      F1625   1.358       .  S
C1629      C1630   1.411       .  A
C1629      C1634   1.413       .  A
C1629      F1636   1.357       .  S
C1630      C1631   1.410       .  A
C1631      C1632   1.394       .  A
C1631      F1638   1.359       .  S
C1632      C1633   1.408       .  A
C1632      F1637   1.359       .  S
C1633      C1634   1.411       .  A
C1634      F1635   1.357   1_545  S
C1639      C1640   1.403       .  A
C1639      C1644   1.400       .  A
C1639      F1646   1.358       .  S
C1640      C1641   1.406       .  A
C1641      C1642   1.400       .  A
C1641      F1648   1.358       .  S
C1642      C1643   1.404       .  A
C1642      F1647   1.358       .  S
C1643      C1644   1.406       .  A
C1644      F1645   1.358       .  S
C1649      C1650   1.408       .  A
C1649      C1654   1.398       .  A
C1649      F1656   1.359       .  S
C1650      C1651   1.404       .  A
C1651      C1652   1.404       .  A
C1651      F1658   1.357       .  S
C1652      C1653   1.412       .  A
C1652      F1657   1.357       .  S
C1653      C1654   1.408       .  A
C1654      F1655   1.358       .  S
C1659      C1660   1.406       .  A
C1659      C1664   1.397       .  A
C1659      F1666   1.358       .  S
C1660      C1661   1.413       .  A
C1661      C1662   1.405       .  A
C1661      F1668   1.358       .  S
C1662      C1663   1.405       .  A
C1662      F1667   1.357       .  S
C1663      C1664   1.407       .  A
C1664      F1665   1.358       .  S
C1669      C1670   1.407       .  A
C1669      C1674   1.397       .  A
C1669      F1676   1.358       .  S
C1670      C1671   1.408       .  A
C1671      C1672   1.403       .  A
C1671      F1678   1.358       .  S
C1672      C1673   1.408       .  A
C1672      F1677   1.358       .  S
C1673      C1674   1.406       .  A
C1674      F1675   1.358       .  S
C1679      C1680   1.408       .  A
C1679      C1684   1.397       .  A
C1679      F1686   1.359       .  S
C1680      C1681   1.405       .  A
C1681      C1682   1.408       .  A
C1681      F1688   1.358       .  S
C1682      C1683   1.415       .  A
C1682      F1687   1.357       .  S
C1683      C1684   1.407       .  A
C1684      F1685   1.357       .  S
C1689      C1690   1.412       .  A
C1689      C1694   1.403       .  A
C1689      F1696   1.358       .  S
C1690      C1691   1.406       .  A
C1691      C1692   1.395       .  A
C1691      F1698   1.358       .  S
C1692      C1693   1.409       .  A
C1692      F1697   1.358       .  S
C1693      C1694   1.405       .  A
C1694      F1695   1.357       .  S
C1699      C1700   1.410       .  A
C1699      C1704   1.392       .  A
C1699      F1706   1.359       .  S
C1700      C1701   1.408       .  A
C1701      C1702   1.404       .  A
C1701      F1708   1.357       .  S
C1702      C1703   1.408       .  A
C1702      F1707   1.357       .  S
C1703      C1704   1.407       .  A
C1704      F1705   1.359       .  S
C1709      C1710   1.407       .  A
C1709      C1714   1.400   1_565  A
C1709      F1716   1.358       .  S
C1710      C1711   1.405       .  A
C1711      C1712   1.396   1_565  A
C1711      F1718   1.358       .  S
C1712      C1713   1.407       .  A
C1712      F1717   1.358       .  S
C1713      C1714   1.409       .  A
C1714      F1715   1.358       .  S
C1719      C1720   1.403       .  A
C1719      C1724   1.403       .  A
C1719      F1726   1.358       .  S
C1720      C1721   1.406       .  A
C1721      C1722   1.394       .  A
C1721      F1728   1.359       .  S
C1722      C1723   1.407       .  A
C1722      F1727   1.358       .  S
C1723      C1724   1.413       .  A
C1724      F1725   1.358       .  S
C1729      C1730   1.407       .  A
C1729      C1734   1.395       .  A
C1729      F1736   1.358       .  S
C1730      C1731   1.414       .  A
C1731      C1732   1.405       .  A
C1731      F1738   1.358       .  S
C1732      C1733   1.403       .  A
C1732      F1737   1.358       .  S
C1733      C1734   1.405       .  A
C1734      F1735   1.359       .  S
C1739      C1740   1.411       .  A
C1739      C1744   1.398       .  A
C1739      F1746   1.358       .  S
C1740      C1741   1.411       .  A
C1741      C1742   1.411       .  A
C1741      F1748   1.357       .  S
C1742      C1743   1.410       .  A
C1742      F1747   1.357       .  S
C1743      C1744   1.408       .  A
C1744      F1745   1.359       .  S
C1749      C1750   1.408       .  A
C1749      C1754   1.398       .  A
C1749      F1756   1.358       .  S
C1750      C1751   1.405       .  A
C1751      C1752   1.407       .  A
C1751      F1758   1.357       .  S
C1752      C1753   1.414       .  A
C1752      F1757   1.358       .  S
C1753      C1754   1.407       .  A
C1754      F1755   1.358       .  S
C1759      C1760   1.409       .  A
C1759      C1764   1.399       .  A
C1759      F1766   1.358       .  S
C1760      C1761   1.410       .  A
C1761      C1762   1.402       .  A
C1761      F1768   1.357       .  S
C1762      C1763   1.405       .  A
C1762      F1767   1.358       .  S
C1763      C1764   1.407       .  A
C1764      F1765   1.358       .  S
C1769      C1770   1.414       .  A
C1769      C1774   1.403       .  A
C1769      F1776   1.358       .  S
C1770      C1771   1.406       .  A
C1771      C1772   1.395       .  A
C1771      F1778   1.358       .  S
C1772      C1773   1.406       .  A
C1772      F1777   1.359       .  S
C1773      C1774   1.402       .  A
C1774      F1775   1.358       .  S
C1779      C1780   1.407       .  A
C1779      C1784   1.394       .  A
C1779      F1786   1.358       .  S
C1780      C1781   1.411       .  A
C1781      C1782   1.411       .  A
C1781      F1788   1.357       .  S
C1782      C1783   1.410       .  A
C1782      F1787   1.357       .  S
C1783      C1784   1.409       .  A
C1784      F1785   1.358       .  S
C1789      C1790   1.408       .  A
C1789      C1794   1.390       .  A
C1789      F1796   1.358       .  S
C1790      C1791   1.411       .  A
C1791      C1792   1.412       .  A
C1791      F1798   1.357       .  S
C1792      C1793   1.411       .  A
C1792      F1797   1.358       .  S
C1793      C1794   1.407       .  A
C1794      F1795   1.359       .  S
C1799      C1800   1.401       .  A
C1799      C1804   1.400       .  A
C1799      F1806   1.358       .  S
C1800      C1801   1.404       .  A
C1801      C1802   1.401       .  A
C1801      F1808   1.358       .  S
C1802      C1803   1.411       .  A
C1802      F1807   1.358       .  S
C1803      C1804   1.411       .  A
C1804      F1805   1.357       .  S
C1809      C1810   1.413       .  A
C1809      C1814   1.401       .  A
C1809      F1816   1.357       .  S
C1810      C1811   1.407       .  A
C1811      C1812   1.400       .  A
C1811      F1818   1.358       .  S
C1812      C1813   1.409       .  A
C1812      F1817   1.359       .  S
C1813      C1814   1.402       .  A
C1814      F1815   1.358       .  S
C1819      C1820   1.414       .  A
C1819      C1824   1.404       .  A
C1819      F1826   1.358       .  S
C1820      C1821   1.406       .  A
C1821      C1822   1.395       .  A
C1821      F1828   1.358       .  S
C1822      C1823   1.409       .  A
C1822      F1827   1.359       .  S
C1823      C1824   1.404       .  A
C1824      F1825   1.358       .  S
C1829      C1830   1.406       .  A
C1829      C1834   1.400       .  A
C1829      F1836   1.358       .  S
C1830      C1831   1.405       .  A
C1831      C1832   1.399       .  A
C1831      F1838   1.358       .  S
C1832      C1833   1.408       .  A
C1832      F1837   1.358       .  S
C1833      C1834   1.408       .  A
C1834      F1835   1.358       .  S
C1839      C1840   1.407       .  A
C1839      C1844   1.395       .  A
C1839      F1846   1.358       .  S
C1840      C1841   1.411       .  A
C1841      C1842   1.413       .  A
C1841      F1848   1.357       .  S
C1842      C1843   1.411       .  A
C1842      F1847   1.357   1_545  S
C1843      C1844   1.409       .  A
C1844      F1845   1.358       .  S
C1849      C1850   1.410   1_545  A
C1849      C1854   1.402       .  A
C1849      F1856   1.358       .  S
C1850      C1851   1.410       .  A
C1851      C1852   1.400   1_565  A
C1851      F1858   1.358       .  S
C1852      C1853   1.404       .  A
C1852      F1857   1.358       .  S
C1853      C1854   1.406       .  A
C1854      F1855   1.358       .  S
C1859      C1860   1.402       .  A
C1859      C1864   1.401       .  A
C1859      F1866   1.358       .  S
C1860      C1861   1.404       .  A
C1861      C1862   1.394       .  A
C1861      F1868   1.359       .  S
C1862      C1863   1.406       .  A
C1862      F1867   1.358       .  S
C1863      C1864   1.412       .  A
C1864      F1865   1.358       .  S
C1869      C1870   1.407       .  A
C1869      C1874   1.391       .  A
C1869      F1876   1.358       .  S
C1870      C1871   1.409       .  A
C1871      C1872   1.407   1_565  A
C1871      F1878   1.357   1_565  S
C1872      C1873   1.409       .  A
C1872      F1877   1.358       .  S
C1873      C1874   1.406   1_545  A
C1874      F1875   1.358       .  S
C1879      C1880   1.404       .  A
C1879      C1884   1.406       .  A
C1879      F1886   1.358       .  S
C1880      C1881   1.406       .  A
C1881      C1882   1.392       .  A
C1881      F1888   1.359       .  S
C1882      C1883   1.406       .  A
C1882      F1887   1.358       .  S
C1883      C1884   1.414       .  A
C1884      F1885   1.358       .  S
C1889      C1890   1.405       .  A
C1889      C1894   1.403       .  A
C1889      F1896   1.357       .  S
C1890      C1891   1.402       .  A
C1891      C1892   1.402       .  A
C1891      F1898   1.358       .  S
C1892      C1893   1.412       .  A
C1892      F1897   1.358       .  S
C1893      C1894   1.410       .  A
C1894      F1895   1.358       .  S
C1899      C1900   1.407       .  A
C1899      C1904   1.394       .  A
C1899      F1906   1.359       .  S
C1900      C1901   1.408       .  A
C1901      C1902   1.407       .  A
C1901      F1908   1.357   1_545  S
C1902      C1903   1.409       .  A
C1902      F1907   1.357       .  S
C1903      C1904   1.408       .  A
C1904      F1905   1.358       .  S
C1909      C1910   1.406       .  A
C1909      C1914   1.395       .  A
C1909      F1916   1.358       .  S
C1910      C1911   1.411       .  A
C1911      C1912   1.400       .  A
C1911      F1918   1.358       .  S
C1912      C1913   1.401       .  A
C1912      F1917   1.358       .  S
C1913      C1914   1.405       .  A
C1914      F1915   1.359       .  S
C1919      C1920   1.409       .  A
C1919      C1924   1.399       .  A
C1919      F1926   1.358       .  S
C1920      C1921   1.411       .  A
C1921      C1922   1.409       .  A
C1921      F1928   1.357       .  S
C1922      C1923   1.409       .  A
C1922      F1927   1.357   1_565  S
C1923      C1924   1.411       .  A
C1924      F1925   1.358       .  S
C1929      C1930   1.407       .  A
C1929      C1934   1.398       .  A
C1929      F1936   1.358       .  S
C1930      C1931   1.409       .  A
C1931      C1932   1.401       .  A
C1931      F1938   1.358       .  S
C1932      C1933   1.408       .  A
C1932      F1937   1.358   1_545  S
C1933      C1934   1.407       .  A
C1934      F1935   1.358       .  S
C1939      C1940   1.407       .  A
C1939      C1944   1.399       .  A
C1939      F1946   1.358   1_655  S
C1940      C1941   1.414       .  A
C1941      C1942   1.405       .  A
C1941      F1948   1.358       .  S
C1942      C1943   1.403       .  A
C1942      F1947   1.357       .  S
C1943      C1944   1.409       .  A
C1944      F1945   1.359       .  S
C1949      C1950   1.406       .  A
C1949      C1954   1.397       .  A
C1949      F1956   1.358   1_554  S
C1950      C1951   1.413       .  A
C1951      C1952   1.404       .  A
C1951      F1958   1.358       .  S
C1952      C1953   1.404       .  A
C1952      F1957   1.358       .  S
C1953      C1954   1.407       .  A
C1954      F1955   1.358   1_554  S
C1959      C1960   1.406       .  A
C1959      C1964   1.400       .  A
C1959      F1966   1.358       .  S
C1960      C1961   1.409       .  A
C1961      C1962   1.402       .  A
C1961      F1968   1.358       .  S
C1962      C1963   1.408       .  A
C1962      F1967   1.358       .  S
C1963      C1964   1.408       .  A
C1964      F1965   1.358       .  S
C1969      C1970   1.406       .  A
C1969      C1974   1.395       .  A
C1969      F1976   1.358       .  S
C1970      C1971   1.405       .  A
C1971      C1972   1.406       .  A
C1971      F1978   1.358       .  S
C1972      C1973   1.414       .  A
C1972      F1977   1.358       .  S
C1973      C1974   1.406       .  A
C1974      F1975   1.358       .  S
C1979      C1980   1.406       .  A
C1979      C1984   1.396       .  A
C1979      F1986   1.358       .  S
C1980      C1981   1.412       .  A
C1981      C1982   1.400       .  A
C1981      F1988   1.357       .  S
C1982      C1983   1.401       .  A
C1982      F1987   1.358       .  S
C1983      C1984   1.408       .  A
C1984      F1985   1.359       .  S
C1989      C1990   1.410       .  A
C1989      C1994   1.408       .  A
C1989      F1996   1.357   1_556  S
C1990      C1991   1.408       .  A
C1991      C1992   1.393       .  A
C1991      F1998   1.359       .  S
C1992      C1993   1.408       .  A
C1992      F1997   1.358       .  S
C1993      C1994   1.409       .  A
C1994      F1995   1.357       .  S
C1999      C2000   1.404       .  A
C1999      C2004   1.405       .  A
C1999      F2006   1.358       .  S
C2000      C2001   1.406       .  A
C2001      C2002   1.396       .  A
C2001      F2008   1.357       .  S
C2002      C2003   1.405       .  A
C2002      F2007   1.358       .  S
C2003      C2004   1.414       .  A
C2004      F2005   1.358       .  S
C2009      C2010   1.414       .  A
C2009      C2014   1.402       .  A
C2009      F2016   1.358       .  S
C2010      C2011   1.406       .  A
C2011      C2012   1.396       .  A
C2011      F2018   1.358       .  S
C2012      C2013   1.407       .  A
C2012      F2017   1.359       .  S
C2013      C2014   1.402       .  A
C2014      F2015   1.358       .  S
C2019      C2020   1.405       .  A
C2019      C2024   1.399       .  A
C2019      F2026   1.357       .  S
C2020      C2021   1.401       .  A
C2021      C2022   1.400       .  A
C2021      F2028   1.358       .  S
C2022      C2023   1.408       .  A
C2022      F2027   1.358       .  S
C2023      C2024   1.403       .  A
C2024      F2025   1.358       .  S
C2029      C2030   1.408       .  A
C2029      C2034   1.398       .  A
C2029      F2036   1.358       .  S
C2030      C2031   1.404       .  A
C2031      C2032   1.405       .  A
C2031      F2038   1.358       .  S
C2032      C2033   1.413       .  A
C2032      F2037   1.357       .  S
C2033      C2034   1.408       .  A
C2034      F2035   1.358       .  S
C2039      C2040   1.403       .  A
C2039      C2044   1.403       .  A
C2039      F2046   1.358       .  S
C2040      C2041   1.405       .  A
C2041      C2042   1.392       .  A
C2041      F2048   1.359       .  S
C2042      C2043   1.406       .  A
C2042      F2047   1.358   1_554  S
C2043      C2044   1.412       .  A
C2044      F2045   1.358       .  S
C2049      C2050   1.410       .  A
C2049      C2054   1.393       .  A
C2049      F2056   1.358       .  S
C2050      C2051   1.411       .  A
C2051      C2052   1.412       .  A
C2051      F2058   1.357   1_556  S
C2052      C2053   1.411       .  A
C2052      F2057   1.357       .  S
C2053      C2054   1.409       .  A
C2054      F2055   1.358       .  S
C2059      C2060   1.413       .  A
C2059      C2064   1.403       .  A
C2059      F2066   1.358       .  S
C2060      C2061   1.406       .  A
C2061      C2062   1.396       .  A
C2061      F2068   1.358       .  S
C2062      C2063   1.409       .  A
C2062      F2067   1.359       .  S
C2063      C2064   1.403       .  A
C2064      F2065   1.357       .  S
C2069      C2070   1.409       .  A
C2069      C2074   1.398   1_565  A
C2069      F2076   1.357       .  S
C2070      C2071   1.410       .  A
C2071      C2072   1.400   1_565  A
C2071      F2078   1.358       .  S
C2072      C2073   1.406       .  A
C2072      F2077   1.359       .  S
C2073      C2074   1.403       .  A
C2074      F2075   1.358       .  S
C2079      C2080   1.406       .  A
C2079      C2084   1.397       .  A
C2079      F2086   1.358       .  S
C2080      C2081   1.404       .  A
C2081      C2082   1.406       .  A
C2081      F2088   1.358       .  S
C2082      C2083   1.413       .  A
C2082      F2087   1.358       .  S
C2083      C2084   1.406       .  A
C2084      F2085   1.358       .  S
C2089      C2090   1.412   1_556  A
C2089      C2094   1.412       .  A
C2089      F2096   1.357       .  S
C2090      C2091   1.410       .  A
C2091      C2092   1.397   1_554  A
C2091      F2098   1.358       .  S
C2092      C2093   1.410       .  A
C2092      F2097   1.358   1_556  S
C2093      C2094   1.410       .  A
C2094      F2095   1.357       .  S
C2099      C2100   1.406       .  A
C2099      C2104   1.397       .  A
C2099      F2106   1.358       .  S
C2100      C2101   1.414       .  A
C2101      C2102   1.405       .  A
C2101      F2108   1.358       .  S
C2102      C2103   1.403       .  A
C2102      F2107   1.358       .  S
C2103      C2104   1.408       .  A
C2104      F2105   1.359       .  S
C2109      C2110   1.409       .  A
C2109      C2114   1.397       .  A
C2109      F2116   1.358       .  S
C2110      C2111   1.411   1_554  A
C2111      C2112   1.409       .  A
C2111      F2118   1.357       .  S
C2112      C2113   1.410       .  A
C2112      F2117   1.357       .  S
C2113      C2114   1.411   1_556  A
C2114      F2115   1.358       .  S
C2119      C2120   1.403       .  A
C2119      C2124   1.400       .  A
C2119      F2126   1.358       .  S
C2120      C2121   1.406       .  A
C2121      C2122   1.401       .  A
C2121      F2128   1.358       .  S
C2122      C2123   1.410       .  A
C2122      F2127   1.358       .  S
C2123      C2124   1.411       .  A
C2124      F2125   1.358       .  S
C2129      C2130   1.414       .  A
C2129      C2134   1.407       .  A
C2129      F2136   1.358       .  S
C2130      C2131   1.405       .  A
C2131      C2132   1.395       .  A
C2131      F2138   1.358       .  S
C2132      C2133   1.407       .  A
C2132      F2137   1.356       .  S
C2133      C2134   1.405       .  A
C2134      F2135   1.358       .  S
C2139      C2140   1.407       .  A
C2139      C2144   1.399       .  A
C2139      F2146   1.358       .  S
C2140      C2141   1.411       .  A
C2141      C2142   1.404       .  A
C2141      F2148   1.357       .  S
C2142      C2143   1.405       .  A
C2142      F2147   1.357       .  S
C2143      C2144   1.410       .  A
C2144      F2145   1.359       .  S
C2149      C2150   1.405       .  A
C2149      C2154   1.399       .  A
C2149      F2156   1.358       .  S
C2150      C2151   1.405       .  A
C2151      C2152   1.403       .  A
C2151      F2158   1.358       .  S
C2152      C2153   1.411   1_556  A
C2152      F2157   1.358       .  S
C2153      C2154   1.409   1_554  A
C2154      F2155   1.358   1_556  S
C2159      C2160   1.405       .  A
C2159      C2164   1.404       .  A
C2159      F2166   1.357       .  S
C2160      C2161   1.409       .  A
C2161      C2162   1.394       .  A
C2161      F2168   1.359       .  S
C2162      C2163   1.406       .  A
C2162      F2167   1.358       .  S
C2163      C2164   1.412       .  A
C2164      F2165   1.358       .  S
C2169      C2170   1.415       .  A
C2169      C2174   1.409       .  A
C2169      F2176   1.358       .  S
C2170      C2171   1.406       .  A
C2171      C2172   1.397       .  A
C2171      F2178   1.358       .  S
C2172      C2173   1.409       .  A
C2172      F2177   1.358       .  S
C2173      C2174   1.406       .  A
C2174      F2175   1.358       .  S
C2179      C2180   1.410       .  A
C2179      C2184   1.408       .  A
C2179      F2186   1.357       .  S
C2180      C2181   1.410       .  A
C2181      C2182   1.400       .  A
C2181      F2188   1.359       .  S
C2182      C2183   1.411       .  A
C2182      F2187   1.359       .  S
C2183      C2184   1.409       .  A
C2184      F2185   1.357       .  S
C2189      C2190   1.405       .  A
C2189      C2194   1.401       .  A
C2189      F2196   1.358       .  S
C2190      C2191   1.406       .  A
C2191      C2192   1.404       .  A
C2191      F2198   1.358       .  S
C2192      C2193   1.412       .  A
C2192      F2197   1.358       .  S
C2193      C2194   1.409       .  A
C2194      F2195   1.357       .  S
C2199      C2200   1.400       .  A
C2199      C2204   1.398       .  A
C2199      F2206   1.357       .  S
C2200      C2201   1.407       .  A
C2201      C2202   1.399       .  A
C2201      F2208   1.359       .  S
C2202      C2203   1.407       .  A
C2202      F2207   1.358       .  S
C2203      C2204   1.412       .  A
C2204      F2205   1.358       .  S
C2209      C2210   1.414       .  A
C2209      C2214   1.404       .  A
C2209      F2216   1.357       .  S
C2210      C2211   1.407       .  A
C2211      C2212   1.397       .  A
C2211      F2218   1.358       .  S
C2212      C2213   1.406       .  A
C2212      F2217   1.359       .  S
C2213      C2214   1.402       .  A
C2214      F2215   1.358       .  S
C2219      C2220   1.404       .  A
C2219      C2224   1.404       .  A
C2219      F2226   1.358       .  S
C2220      C2221   1.407       .  A
C2221      C2222   1.399       .  A
C2221      F2228   1.358       .  S
C2222      C2223   1.407       .  A
C2222      F2227   1.358       .  S
C2223      C2224   1.413       .  A
C2224      F2225   1.358       .  S
C2229      C2230   1.409       .  A
C2229      C2234   1.411       .  A
C2229      F2236   1.358       .  S
C2230      C2231   1.405       .  A
C2231      C2232   1.391       .  A
C2231      F2238   1.359       .  S
C2232      C2233   1.405       .  A
C2232      F2237   1.358       .  S
C2233      C2234   1.411       .  A
C2234      F2235   1.357       .  S
C2239      C2240   1.408       .  A
C2239      C2244   1.402       .  A
C2239      F2246   1.358       .  S
C2240      C2241   1.408       .  A
C2241      C2242   1.400       .  A
C2241      F2248   1.358       .  S
C2242      C2243   1.407       .  A
C2242      F2247   1.358       .  S
C2243      C2244   1.408       .  A
C2244      F2245   1.358       .  S
C2249      C2250   1.404       .  A
C2249      C2254   1.404       .  A
C2249      F2256   1.358       .  S
C2250      C2251   1.406       .  A
C2251      C2252   1.394       .  A
C2251      F2258   1.359       .  S
C2252      C2253   1.407       .  A
C2252      F2257   1.358       .  S
C2253      C2254   1.412       .  A
C2254      F2255   1.358       .  S
C2259      C2260   1.407       .  A
C2259      C2264   1.391       .  A
C2259      F2266   1.358       .  S
C2260      C2261   1.410       .  A
C2261      C2262   1.411       .  A
C2261      F2268   1.357       .  S
C2262      C2263   1.410       .  A
C2262      F2267   1.357       .  S
C2263      C2264   1.407       .  A
C2264      F2265   1.359       .  S
C2269      C2270   1.404       .  A
C2269      C2274   1.403       .  A
C2269      F2276   1.357       .  S
C2270      C2271   1.409       .  A
C2271      C2272   1.395       .  A
C2271      F2278   1.359       .  S
C2272      C2273   1.407       .  A
C2272      F2277   1.358       .  S
C2273      C2274   1.412       .  A
C2274      F2275   1.357       .  S
C2279      C2280   1.406       .  A
C2279      C2284   1.396       .  A
C2279      F2286   1.358       .  S
C2280      C2281   1.413       .  A
C2281      C2282   1.402       .  A
C2281      F2288   1.358       .  S
C2282      C2283   1.402       .  A
C2282      F2287   1.358       .  S
C2283      C2284   1.407       .  A
C2284      F2285   1.359       .  S
C2289      C2290   1.410       .  A
C2289      C2294   1.411       .  A
C2289      F2296   1.358       .  S
C2290      C2291   1.405       .  A
C2291      C2292   1.393       .  A
C2291      F2298   1.358       .  S
C2292      C2293   1.406       .  A
C2292      F2297   1.358       .  S
C2293      C2294   1.410       .  A
C2294      F2295   1.357       .  S
C2299      C2300   1.406       .  A
C2299      C2304   1.401       .  A
C2299      F2306   1.358       .  S
C2300      C2301   1.404       .  A
C2301      C2302   1.398       .  A
C2301      F2308   1.358       .  S
C2302      C2303   1.407       .  A
C2302      F2307   1.358       .  S
C2303      C2304   1.410       .  A
C2304      F2305   1.358       .  S
C2309      C2310   1.407       .  A
C2309      C2314   1.393       .  A
C2309      F2316   1.358       .  S
C2310      C2311   1.413       .  A
C2311      C2312   1.403       .  A
C2311      F2318   1.358       .  S
C2312      C2313   1.402       .  A
C2312      F2317   1.358       .  S
C2313      C2314   1.405       .  A
C2314      F2315   1.359       .  S
C2319      C2320   1.413       .  A
C2319      C2324   1.399       .  A
C2319      F2326   1.359       .  S
C2320      C2321   1.405       .  A
C2321      C2322   1.403       .  A
C2321      F2328   1.357       .  S
C2322      C2323   1.410       .  A
C2322      F2327   1.357       .  S
C2323      C2324   1.406       .  A
C2324      F2325   1.359       .  S
C2329      C2330   1.413       .  A
C2329      C2334   1.401       .  A
C2329      F2336   1.357       .  S
C2330      C2331   1.408       .  A
C2331      C2332   1.400       .  A
C2331      F2338   1.358       .  S
C2332      C2333   1.408       .  A
C2332      F2337   1.359       .  S
C2333      C2334   1.402       .  A
C2334      F2335   1.358       .  S
C2339      C2340   1.406       .  A
C2339      C2344   1.398       .  A
C2339      F2346   1.358       .  S
C2340      C2341   1.402       .  A
C2341      C2342   1.400       .  A
C2341      F2348   1.358       .  S
C2342      C2343   1.407       .  A
C2342      F2347   1.358       .  S
C2343      C2344   1.402       .  A
C2344      F2345   1.358       .  S
C2349      C2350   1.409       .  A
C2349      C2354   1.393       .  A
C2349      F2356   1.359       .  S
C2350      C2351   1.406       .  A
C2351      C2352   1.405       .  A
C2351      F2358   1.357       .  S
C2352      C2353   1.411       .  A
C2352      F2357   1.358       .  S
C2353      C2354   1.406       .  A
C2354      F2355   1.358       .  S
C2359      C2360   1.413       .  A
C2359      C2364   1.405       .  A
C2359      F2366   1.358       .  S
C2360      C2361   1.407       .  A
C2361      C2362   1.395       .  A
C2361      F2368   1.358       .  S
C2362      C2363   1.407       .  A
C2362      F2367   1.359       .  S
C2363      C2364   1.405       .  A
C2364      F2365   1.358       .  S
C2369      C2370   1.406       .  A
C2369      C2374   1.399       .  A
C2369      F2376   1.358       .  S
C2370      C2371   1.406       .  A
C2371      C2372   1.399       .  A
C2371      F2378   1.358       .  S
C2372      C2373   1.408       .  A
C2372      F2377   1.358       .  S
C2373      C2374   1.408       .  A
C2374      F2375   1.358       .  S
C2379      C2380   1.406       .  A
C2379      C2384   1.396       .  A
C2379      F2386   1.359       .  S
C2380      C2381   1.402       .  A
C2381      C2382   1.404       .  A
C2381      F2388   1.358       .  S
C2382      C2383   1.414       .  A
C2382      F2387   1.357       .  S
C2383      C2384   1.407       .  A
C2384      F2385   1.358       .  S
C2389      C2390   1.403       .  A
C2389      C2394   1.404       .  A
C2389      F2396   1.357       .  S
C2390      C2391   1.409       .  A
C2391      C2392   1.396       .  A
C2391      F2398   1.359       .  S
C2392      C2393   1.406       .  A
C2392      F2397   1.358       .  S
C2393      C2394   1.413       .  A
C2394      F2395   1.358       .  S
C2399      C2400   1.409       .  A
C2399      C2404   1.392       .  A
C2399      F2406   1.358       .  S
C2400      C2401   1.411       .  A
C2401      C2402   1.412       .  A
C2401      F2408   1.357       .  S
C2402      C2403   1.412       .  A
C2402      F2407   1.357       .  S
C2403      C2404   1.408       .  A
C2404      F2405   1.358       .  S
C2409      C2410   1.403       .  A
C2409      C2414   1.403       .  A
C2409      F2416   1.358       .  S
C2410      C2411   1.406       .  A
C2411      C2412   1.396       .  A
C2411      F2418   1.358       .  S
C2412      C2413   1.406       .  A
C2412      F2417   1.358       .  S
C2413      C2414   1.414       .  A
C2414      F2415   1.358       .  S
C2419      C2420   1.408       .  A
C2419      C2424   1.395       .  A
C2419      F2426   1.358       .  S
C2420      C2421   1.409       .  A
C2421      C2422   1.406       .  A
C2421      F2428   1.357       .  S
C2422      C2423   1.408       .  A
C2422      F2427   1.357       .  S
C2423      C2424   1.409       .  A
C2424      F2425   1.359       .  S
C2429      C2430   1.407       .  A
C2429      C2434   1.399   1_565  A
C2429      F2436   1.358       .  S
C2430      C2431   1.406       .  A
C2431      C2432   1.403   1_565  A
C2431      F2438   1.358       .  S
C2432      C2433   1.410       .  A
C2432      F2437   1.358       .  S
C2433      C2434   1.408       .  A
C2434      F2435   1.358       .  S
C2439      C2440   1.406       .  A
C2439      C2444   1.394       .  A
C2439      F2446   1.358       .  S
C2440      C2441   1.413       .  A
C2441      C2442   1.405       .  A
C2441      F2448   1.357       .  S
C2442      C2443   1.404       .  A
C2442      F2447   1.358       .  S
C2443      C2444   1.408       .  A
C2444      F2445   1.359       .  S
C2449      C2450   1.407       .  A
C2449      C2454   1.401       .  A
C2449      F2456   1.358       .  S
C2450      C2451   1.411       .  A
C2451      C2452   1.400       .  A
C2451      F2458   1.358       .  S
C2452      C2453   1.403       .  A
C2452      F2457   1.358       .  S
C2453      C2454   1.408       .  A
C2454      F2455   1.359       .  S
C2459      C2460   1.410       .  A
C2459      C2464   1.392       .  A
C2459      F2466   1.358       .  S
C2460      C2461   1.411       .  A
C2461      C2462   1.412       .  A
C2461      F2468   1.357       .  S
C2462      C2463   1.411       .  A
C2462      F2467   1.357       .  S
C2463      C2464   1.408       .  A
C2464      F2465   1.359       .  S
C2469      C2470   1.406       .  A
C2469      C2474   1.394       .  A
C2469      F2476   1.358       .  S
C2470      C2471   1.413       .  A
C2471      C2472   1.403       .  A
C2471      F2478   1.358       .  S
C2472      C2473   1.403       .  A
C2472      F2477   1.358       .  S
C2473      C2474   1.407       .  A
C2474      F2475   1.359       .  S
C2479      C2480   1.410       .  A
C2479      C2484   1.395       .  A
C2479      F2486   1.359       .  S
C2480      C2481   1.409       .  A
C2481      C2482   1.405       .  A
C2481      F2488   1.357       .  S
C2482      C2483   1.408       .  A
C2482      F2487   1.357       .  S
C2483      C2484   1.410       .  A
C2484      F2485   1.359       .  S
C2489      C2490   1.407       .  A
C2489      C2494   1.400       .  A
C2489      F2496   1.358       .  S
C2490      C2491   1.409       .  A
C2491      C2492   1.399       .  A
C2491      F2498   1.358       .  S
C2492      C2493   1.406       .  A
C2492      F2497   1.358       .  S
C2493      C2494   1.407       .  A
C2494      F2495   1.358       .  S
C2499      C2500   1.404       .  A
C2499      C2504   1.396       .  A
C2499      F2506   1.359       .  S
C2500      C2501   1.401       .  A
C2501      C2502   1.399       .  A
C2501      F2508   1.358       .  S
C2502      C2503   1.410       .  A
C2502      F2507   1.358       .  S
C2503      C2504   1.406       .  A
C2504      F2505   1.358       .  S
C2509      C2510   1.403       .  A
C2509      C2514   1.405       .  A
C2509      F2516   1.358       .  S
C2510      C2511   1.406       .  A
C2511      C2512   1.396       .  A
C2511      F2518   1.359       .  S
C2512      C2513   1.407       .  A
C2512      F2517   1.358       .  S
C2513      C2514   1.415       .  A
C2514      F2515   1.358       .  S
C2519      C2520   1.414       .  A
C2519      C2524   1.402       .  A
C2519      F2526   1.357       .  S
C2520      C2521   1.407       .  A
C2521      C2522   1.398       .  A
C2521      F2528   1.358       .  S
C2522      C2523   1.408       .  A
C2522      F2527   1.358       .  S
C2523      C2524   1.402       .  A
C2524      F2525   1.358       .  S
C2529      C2530   1.404       .  A
C2529      C2534   1.400       .  A
C2529      F2536   1.357       .  S
C2530      C2531   1.410       .  A
C2531      C2532   1.402       .  A
C2531      F2538   1.358       .  S
C2532      C2533   1.403       .  A
C2532      F2537   1.358       .  S
C2533      C2534   1.406       .  A
C2534      F2535   1.358       .  S
C2539      C2540   1.408       .  A
C2539      C2544   1.396       .  A
C2539      F2546   1.358       .  S
C2540      C2541   1.405       .  A
C2541      C2542   1.403       .  A
C2541      F2548   1.357       .  S
C2542      C2543   1.412       .  A
C2542      F2547   1.358       .  S
C2543      C2544   1.407       .  A
C2544      F2545   1.358       .  S
C2549      C2550   1.412       .  A
C2549      C2554   1.414       .  A
C2549      F2556   1.357       .  S
C2550      C2551   1.408       .  A
C2551      C2552   1.394       .  A
C2551      F2558   1.358       .  S
C2552      C2553   1.408       .  A
C2552      F2557   1.358       .  S
C2553      C2554   1.411       .  A
C2554      F2555   1.357       .  S
C2559      C2560   1.402       .  A
C2559      C2564   1.402       .  A
C2559      F2566   1.358       .  S
C2560      C2561   1.407       .  A
C2561      C2562   1.397       .  A
C2561      F2568   1.359       .  S
C2562      C2563   1.407       .  A
C2562      F2567   1.358       .  S
C2563      C2564   1.413       .  A
C2564      F2565   1.357       .  S
C2569      C2570   1.402   1_556  A
C2569      C2574   1.397       .  A
C2569      F2576   1.357   1_455  S
C2570      C2571   1.400   1_554  A
C2571      C2572   1.401       .  A
C2571      F2578   1.358   1_556  S
C2572      C2573   1.411       .  A
C2572      F2577   1.358       .  S
C2573      C2574   1.406       .  A
C2574      F2575   1.358   1_455  S
C2579      C2580   1.412       .  A
C2579      C2584   1.400       .  A
C2579      F2586   1.358       .  S
C2580      C2581   1.407       .  A
C2581      C2582   1.397       .  A
C2581      F2588   1.358       .  S
C2582      C2583   1.404       .  A
C2582      F2587   1.359       .  S
C2583      C2584   1.401       .  A
C2584      F2585   1.358       .  S
C2589      C2590   1.408       .  A
C2589      C2594   1.399       .  A
C2589      F2596   1.358       .  S
C2590      C2591   1.414       .  A
C2591      C2592   1.404       .  A
C2591      F2598   1.358       .  S
C2592      C2593   1.403       .  A
C2592      F2597   1.358       .  S
C2593      C2594   1.407       .  A
C2594      F2595   1.358       .  S
C2599      C2600   1.406       .  A
C2599      C2604   1.397       .  A
C2599      F2606   1.358       .  S
C2600      C2601   1.404       .  A
C2601      C2602   1.405       .  A
C2601      F2608   1.358       .  S
C2602      C2603   1.414       .  A
C2602      F2607   1.358       .  S
C2603      C2604   1.406       .  A
C2604      F2605   1.358       .  S
C2609      C2610   1.410   1_455  A
C2609      C2614   1.409       .  A
C2609      F2616   1.357       .  S
C2610      C2611   1.408       .  A
C2611      C2612   1.392       .  A
C2611      F2618   1.358       .  S
C2612      C2613   1.408   1_655  A
C2612      F2617   1.359       .  S
C2613      C2614   1.410       .  A
C2614      F2615   1.358       .  S
C2619      C2620   1.403       .  A
C2619      C2624   1.401       .  A
C2619      F2626   1.358       .  S
C2620      C2621   1.407       .  A
C2621      C2622   1.405       .  A
C2621      F2628   1.358       .  S
C2622      C2623   1.411       .  A
C2622      F2627   1.358       .  S
C2623      C2624   1.412       .  A
C2624      F2625   1.357       .  S
C2629      C2630   1.406       .  A
C2629      C2634   1.397       .  A
C2629      F2636   1.359       .  S
C2630      C2631   1.401       .  A
C2631      C2632   1.402       .  A
C2631      F2638   1.358       .  S
C2632      C2633   1.414       .  A
C2632      F2637   1.358       .  S
C2633      C2634   1.406       .  A
C2634      F2635   1.358       .  S
C2639      C2640   1.405       .  A
C2639      C2644   1.393       .  A
C2639      F2646   1.358       .  S
C2640      C2641   1.413       .  A
C2641      C2642   1.407       .  A
C2641      F2648   1.358       .  S
C2642      C2643   1.405       .  A
C2642      F2647   1.357       .  S
C2643      C2644   1.409       .  A
C2644      F2645   1.359       .  S
C2649      C2650   1.409       .  A
C2649      C2654   1.396       .  A
C2649      F2656   1.359       .  S
C2650      C2651   1.409       .  A
C2651      C2652   1.409       .  A
C2651      F2658   1.357   1_455  S
C2652      C2653   1.410       .  A
C2652      F2657   1.357       .  S
C2653      C2654   1.410       .  A
C2654      F2655   1.358       .  S
C2659      C2660   1.404       .  A
C2659      C2664   1.404       .  A
C2659      F2666   1.358       .  S
C2660      C2661   1.406       .  A
C2661      C2662   1.395       .  A
C2661      F2668   1.358       .  S
C2662      C2663   1.406       .  A
C2662      F2667   1.358       .  S
C2663      C2664   1.413       .  A
C2664      F2665   1.358       .  S
C2669      C2670   1.406       .  A
C2669      C2674   1.397       .  A
C2669      F2676   1.359       .  S
C2670      C2671   1.403       .  A
C2671      C2672   1.405       .  A
C2671      F2678   1.358       .  S
C2672      C2673   1.415       .  A
C2672      F2677   1.357       .  S
C2673      C2674   1.407       .  A
C2674      F2675   1.357       .  S
C2679      C2680   1.410       .  A
C2679      C2684   1.412       .  A
C2679      F2686   1.357       .  S
C2680      C2681   1.408   1_455  A
C2681      C2682   1.395       .  A
C2681      F2688   1.359       .  S
C2682      C2683   1.409       .  A
C2682      F2687   1.358       .  S
C2683      C2684   1.411   1_655  A
C2684      F2685   1.357       .  S
C2689      C2690   1.408       .  A
C2689      C2694   1.398       .  A
C2689      F2696   1.358       .  S
C2690      C2691   1.409       .  A
C2691      C2692   1.408       .  A
C2691      F2698   1.358       .  S
C2692      C2693   1.411       .  A
C2692      F2697   1.358       .  S
C2693      C2694   1.405       .  A
C2694      F2695   1.358       .  S
C2699      C2700   1.404       .  A
C2699      C2704   1.403       .  A
C2699      F2706   1.357       .  S
C2700      C2701   1.410       .  A
C2701      C2702   1.399       .  A
C2701      F2708   1.359       .  S
C2702      C2703   1.407       .  A
C2702      F2707   1.358       .  S
C2703      C2704   1.411       .  A
C2704      F2705   1.357       .  S
C2709      C2710   1.408       .  A
C2709      C2714   1.399       .  A
C2709      F2716   1.358       .  S
C2710      C2711   1.414       .  A
C2711      C2712   1.408       .  A
C2711      F2718   1.357       .  S
C2712      C2713   1.406       .  A
C2712      F2717   1.357       .  S
C2713      C2714   1.410       .  A
C2714      F2715   1.358       .  S
C2719      C2720   1.406       .  A
C2719      C2724   1.392       .  A
C2719      F2726   1.359       .  S
C2720      C2721   1.404       .  A
C2721      C2722   1.405       .  A
C2721      F2728   1.358       .  S
C2722      C2723   1.413       .  A
C2722      F2727   1.358       .  S
C2723      C2724   1.405       .  A
C2724      F2725   1.358       .  S
C2729      C2730   1.407       .  A
C2729      C2734   1.397       .  A
C2729      F2736   1.358       .  S
C2730      C2731   1.413       .  A
C2731      C2732   1.405       .  A
C2731      F2738   1.358       .  S
C2732      C2733   1.404       .  A
C2732      F2737   1.357       .  S
C2733      C2734   1.408       .  A
C2734      F2735   1.358       .  S
C2739      C2740   1.409       .  A
C2739      C2744   1.403       .  A
C2739      F2746   1.358       .  S
C2740      C2741   1.408       .  A
C2741      C2742   1.400       .  A
C2741      F2748   1.358       .  S
C2742      C2743   1.407       .  A
C2742      F2747   1.358       .  S
C2743      C2744   1.408       .  A
C2744      F2745   1.358       .  S
C2749      C2750   1.407       .  A
C2749      C2754   1.396       .  A
C2749      F2756   1.359       .  S
C2750      C2751   1.404       .  A
C2751      C2752   1.405       .  A
C2751      F2758   1.358       .  S
C2752      C2753   1.414       .  A
C2752      F2757   1.357       .  S
C2753      C2754   1.407       .  A
C2754      F2755   1.358       .  S
C2759      C2760   1.407       .  A
C2759      C2764   1.395       .  A
C2759      F2766   1.358       .  S
C2760      C2761   1.411       .  A
C2761      C2762   1.399       .  A
C2761      F2768   1.358       .  S
C2762      C2763   1.401       .  A
C2762      F2767   1.358       .  S
C2763      C2764   1.406       .  A
C2764      F2765   1.359       .  S
C2769      C2770   1.409       .  A
C2769      C2774   1.394       .  A
C2769      F2776   1.358       .  S
C2770      C2771   1.410       .  A
C2771      C2772   1.412       .  A
C2771      F2778   1.357       .  S
C2772      C2773   1.412       .  A
C2772      F2777   1.357       .  S
C2773      C2774   1.409       .  A
C2774      F2775   1.358       .  S
C2779      C2780   1.408       .  A
C2779      C2784   1.397       .  A
C2779      F2786   1.358       .  S
C2780      C2781   1.404       .  A
C2781      C2782   1.404       .  A
C2781      F2788   1.357       .  S
C2782      C2783   1.413       .  A
C2782      F2787   1.358       .  S
C2783      C2784   1.406       .  A
C2784      F2785   1.358       .  S
C2789      C2790   1.408       .  A
C2789      C2794   1.400       .  A
C2789      F2796   1.358       .  S
C2790      C2791   1.407       .  A
C2791      C2792   1.397       .  A
C2791      F2798   1.358       .  S
C2792      C2793   1.406       .  A
C2792      F2797   1.358       .  S
C2793      C2794   1.405       .  A
C2794      F2795   1.358       .  S
C2799      C2800   1.408       .  A
C2799      C2804   1.399       .  A
C2799      F2806   1.358   1_655  S
C2800      C2801   1.403       .  A
C2801      C2802   1.400       .  A
C2801      F2808   1.358       .  S
C2802      C2803   1.411       .  A
C2802      F2807   1.358       .  S
C2803      C2804   1.407       .  A
C2804      F2805   1.358   1_655  S
C2809      C2810   1.404       .  A
C2809      C2814   1.406       .  A
C2809      F2816   1.358       .  S
C2810      C2811   1.406       .  A
C2811      C2812   1.395       .  A
C2811      F2818   1.358       .  S
C2812      C2813   1.406       .  A
C2812      F2817   1.358       .  S
C2813      C2814   1.414       .  A
C2814      F2815   1.358       .  S
C2819      C2820   1.410       .  A
C2819      C2824   1.396       .  A
C2819      F2826   1.358       .  S
C2820      C2821   1.410       .  A
C2821      C2822   1.409       .  A
C2821      F2828   1.357       .  S
C2822      C2823   1.409       .  A
C2822      F2827   1.357       .  S
C2823      C2824   1.409       .  A
C2824      F2825   1.359       .  S
C2829      C2830   1.408       .  A
C2829      C2834   1.398       .  A
C2829      F2836   1.358       .  S
C2830      C2831   1.403       .  A
C2831      C2832   1.403       .  A
C2831      F2838   1.357       .  S
C2832      C2833   1.413       .  A
C2832      F2837   1.358       .  S
C2833      C2834   1.407       .  A
C2834      F2835   1.358       .  S
C2839      C2840   1.408       .  A
C2839      C2844   1.398       .  A
C2839      F2846   1.359       .  S
C2840      C2841   1.402       .  A
C2841      C2842   1.401       .  A
C2841      F2848   1.358       .  S
C2842      C2843   1.412       .  A
C2842      F2847   1.358       .  S
C2843      C2844   1.406       .  A
C2844      F2845   1.358       .  S
C2849      C2850   1.408       .  A
C2849      C2854   1.400       .  A
C2849      F2856   1.358       .  S
C2850      C2851   1.410       .  A
C2851      C2852   1.401       .  A
C2851      F2858   1.358       .  S
C2852      C2853   1.404       .  A
C2852      F2857   1.358       .  S
C2853      C2854   1.405       .  A
C2854      F2855   1.358       .  S
C2859      C2860   1.406       .  A
C2859      C2864   1.395       .  A
C2859      F2866   1.359       .  S
C2860      C2861   1.402       .  A
C2861      C2862   1.402       .  A
C2861      F2868   1.358       .  S
C2862      C2863   1.413       .  A
C2862      F2867   1.358       .  S
C2863      C2864   1.407       .  A
C2864      F2865   1.358       .  S
C2869      C2870   1.403       .  A
C2869      C2874   1.404       .  A
C2869      F2876   1.358       .  S
C2870      C2871   1.406       .  A
C2871      C2872   1.399       .  A
C2871      F2878   1.359       .  S
C2872      C2873   1.408       .  A
C2872      F2877   1.357       .  S
C2873      C2874   1.414       .  A
C2874      F2875   1.358       .  S
C2879      C2880   1.407       .  A
C2879      C2884   1.408       .  A
C2879      F2886   1.358       .  S
C2880      C2881   1.405       .  A
C2881      C2882   1.394       .  A
C2881      F2888   1.358       .  S
C2882      C2883   1.403       .  A
C2882      F2887   1.358       .  S
C2883      C2884   1.409       .  A
C2884      F2885   1.358       .  S
C2889      C2890   1.408       .  A
C2889      C2894   1.398       .  A
C2889      F2896   1.359       .  S
C2890      C2891   1.402       .  A
C2891      C2892   1.404       .  A
C2891      F2898   1.357       .  S
C2892      C2893   1.414       .  A
C2892      F2897   1.357       .  S
C2893      C2894   1.407       .  A
C2894      F2895   1.358       .  S
C2899      C2900   1.411       .  A
C2899      C2904   1.411       .  A
C2899      F2906   1.358       .  S
C2900      C2901   1.407       .  A
C2901      C2902   1.396       .  A
C2901      F2908   1.358       .  S
C2902      C2903   1.408       .  A
C2902      F2907   1.358       .  S
C2903      C2904   1.411       .  A
C2904      F2905   1.357       .  S
C2909      C2910   1.407       .  A
C2909      C2914   1.400       .  A
C2909      F2916   1.358       .  S
C2910      C2911   1.408       .  A
C2911      C2912   1.402       .  A
C2911      F2918   1.358       .  S
C2912      C2913   1.408       .  A
C2912      F2917   1.358       .  S
C2913      C2914   1.408       .  A
C2914      F2915   1.358       .  S
C2919      C2920   1.409       .  A
C2919      C2924   1.398       .  A
C2919      F2926   1.359       .  S
C2920      C2921   1.404       .  A
C2921      C2922   1.404       .  A
C2921      F2928   1.357       .  S
C2922      C2923   1.413       .  A
C2922      F2927   1.357       .  S
C2923      C2924   1.407       .  A
C2924      F2925   1.358       .  S
C2929      C2930   1.413       .  A
C2929      C2934   1.403       .  A
C2929      F2936   1.357       .  S
C2930      C2931   1.407       .  A
C2931      C2932   1.394       .  A
C2931      F2938   1.358       .  S
C2932      C2933   1.406       .  A
C2932      F2937   1.359       .  S
C2933      C2934   1.403       .  A
C2934      F2935   1.358       .  S
C2939      C2940   1.408       .  A
C2939      C2944   1.399       .  A
C2939      F2946   1.358       .  S
C2940      C2941   1.403       .  A
C2941      C2942   1.405       .  A
C2941      F2948   1.358       .  S
C2942      C2943   1.414       .  A
C2942      F2947   1.357       .  S
C2943      C2944   1.407       .  A
C2944      F2945   1.358       .  S
C2949      C2950   1.407       .  A
C2949      C2954   1.399       .  A
C2949      F2956   1.358       .  S
C2950      C2951   1.414       .  A
C2951      C2952   1.405       .  A
C2951      F2958   1.357       .  S
C2952      C2953   1.404       .  A
C2952      F2957   1.358       .  S
C2953      C2954   1.409       .  A
C2954      F2955   1.359       .  S
C2959      C2960   1.401       .  A
C2959      C2964   1.402       .  A
C2959      F2966   1.358       .  S
C2960      C2961   1.404       .  A
C2961      C2962   1.401       .  A
C2961      F2968   1.358       .  S
C2962      C2963   1.410       .  A
C2962      F2967   1.357       .  S
C2963      C2964   1.414       .  A
C2964      F2965   1.357       .  S
C2969      C2970   1.406       .  A
C2969      C2974   1.396       .  A
C2969      F2976   1.359       .  S
C2970      C2971   1.402       .  A
C2971      C2972   1.402       .  A
C2971      F2978   1.358       .  S
C2972      C2973   1.413       .  A
C2972      F2977   1.358       .  S
C2973      C2974   1.406       .  A
C2974      F2975   1.358       .  S
C2979      C2980   1.412       .  A
C2979      C2984   1.405       .  A
C2979      F2986   1.357       .  S
C2980      C2981   1.406       .  A
C2981      C2982   1.393       .  A
C2981      F2988   1.358       .  S
C2982      C2983   1.408       .  A
C2982      F2987   1.358       .  S
C2983      C2984   1.404       .  A
C2984      F2985   1.357       .  S
C2989      C2990   1.410       .  A
C2989      C2994   1.411       .  A
C2989      F2996   1.358       .  S
C2990      C2991   1.409   1_556  A
C2991      C2992   1.391       .  A
C2991      F2998   1.358       .  S
C2992      C2993   1.407       .  A
C2992      F2997   1.358       .  S
C2993      C2994   1.412   1_554  A
C2994      F2995   1.357       .  S
C2999      C3000   1.406       .  A
C2999      C3004   1.396       .  A
C2999      F3006   1.358       .  S
C3000      C3001   1.402       .  A
C3001      C3002   1.401       .  A
C3001      F3008   1.358       .  S
C3002      C3003   1.412       .  A
C3002      F3007   1.358       .  S
C3003      C3004   1.405       .  A
C3004      F3005   1.358       .  S
C3009      C3010   1.413       .  A
C3009      C3014   1.405       .  A
C3009      F3016   1.357       .  S
C3010      C3011   1.408       .  A
C3011      C3012   1.398       .  A
C3011      F3018   1.358   1_554  S
C3012      C3013   1.408       .  A
C3012      F3017   1.359       .  S
C3013      C3014   1.403       .  A
C3014      F3015   1.357       .  S
C3019      C3020   1.408       .  A
C3019      C3024   1.397   1_545  A
C3019      F3026   1.358       .  S
C3020      C3021   1.409       .  A
C3021      C3022   1.402   1_545  A
C3021      F3028   1.358       .  S
C3022      C3023   1.407       .  A
C3022      F3027   1.358       .  S
C3023      C3024   1.405       .  A
C3024      F3025   1.358       .  S
C3029      C3030   1.410       .  A
C3029      C3034   1.396       .  A
C3029      F3036   1.359       .  S
C3030      C3031   1.406       .  A
C3031      C3032   1.405       .  A
C3031      F3038   1.357       .  S
C3032      C3033   1.412       .  A
C3032      F3037   1.358       .  S
C3033      C3034   1.406       .  A
C3034      F3035   1.358       .  S
C3039      C3040   1.406       .  A
C3039      C3044   1.397       .  A
C3039      F3046   1.358       .  S
C3040      C3041   1.414       .  A
C3041      C3042   1.405       .  A
C3041      F3048   1.357       .  S
C3042      C3043   1.403       .  A
C3042      F3047   1.357       .  S
C3043      C3044   1.409       .  A
C3044      F3045   1.358       .  S
C3049      C3050   1.406       .  A
C3049      C3054   1.395       .  A
C3049      F3056   1.359       .  S
C3050      C3051   1.404       .  A
C3051      C3052   1.404       .  A
C3051      F3058   1.358       .  S
C3052      C3053   1.413       .  A
C3052      F3057   1.358       .  S
C3053      C3054   1.407       .  A
C3054      F3055   1.358       .  S
C3059      C3060   1.414       .  A
C3059      C3064   1.405       .  A
C3059      F3066   1.357       .  S
C3060      C3061   1.407       .  A
C3061      C3062   1.398       .  A
C3061      F3068   1.358       .  S
C3062      C3063   1.407       .  A
C3062      F3067   1.357       .  S
C3063      C3064   1.404       .  A
C3064      F3065   1.358       .  S
C3069      C3070   1.411       .  A
C3069      C3074   1.410       .  A
C3069      F3076   1.357       .  S
C3070      C3071   1.408       .  A
C3071      C3072   1.394       .  A
C3071      F3078   1.358       .  S
C3072      C3073   1.410       .  A
C3072      F3077   1.358       .  S
C3073      C3074   1.410       .  A
C3074      F3075   1.357   1_556  S
C3079      C3080   1.409       .  A
C3079      C3084   1.402       .  A
C3079      F3086   1.358       .  S
C3080      C3081   1.409       .  A
C3081      C3082   1.405       .  A
C3081      F3088   1.358       .  S
C3082      C3083   1.409       .  A
C3082      F3087   1.358       .  S
C3083      C3084   1.407       .  A
C3084      F3085   1.358       .  S
C3089      C3090   1.406       .  A
C3089      C3094   1.396       .  A
C3089      F3096   1.358       .  S
C3090      C3091   1.404       .  A
C3091      C3092   1.405       .  A
C3091      F3098   1.358       .  S
C3092      C3093   1.413       .  A
C3092      F3097   1.358       .  S
C3093      C3094   1.406       .  A
C3094      F3095   1.358       .  S
C3099      C3100   1.407       .  A
C3099      C3104   1.399       .  A
C3099      F3106   1.358       .  S
C3100      C3101   1.412       .  A
C3101      C3102   1.402       .  A
C3101      F3108   1.357       .  S
C3102      C3103   1.402       .  A
C3102      F3107   1.358       .  S
C3103      C3104   1.406       .  A
C3104      F3105   1.358       .  S
C3109      C3110   1.411       .  A
C3109      C3114   1.412       .  A
C3109      F3116   1.357       .  S
C3110      C3111   1.408       .  A
C3111      C3112   1.395   1_556  A
C3111      F3118   1.358       .  S
C3112      C3113   1.407       .  A
C3112      F3117   1.359       .  S
C3113      C3114   1.410   1_554  A
C3114      F3115   1.357       .  S
C3119      C3120   1.408       .  A
C3119      C3124   1.399       .  A
C3119      F3126   1.358       .  S
C3120      C3121   1.404       .  A
C3121      C3122   1.406       .  A
C3121      F3128   1.358       .  S
C3122      C3123   1.414       .  A
C3122      F3127   1.358       .  S
C3123      C3124   1.406       .  A
C3124      F3125   1.358       .  S
C3129      C3130   1.410       .  A
C3129      C3134   1.399       .  A
C3129      F3136   1.357       .  S
C3130      C3131   1.407       .  A
C3131      C3132   1.410       .  A
C3131      F3138   1.357       .  S
C3132      C3133   1.414       .  A
C3132      F3137   1.357       .  S
C3133      C3134   1.408       .  A
C3134      F3135   1.358   1_554  S
C3139      C3140   1.412       .  A
C3139      C3144   1.415       .  A
C3139      F3146   1.358       .  S
C3140      C3141   1.405       .  A
C3141      C3142   1.390       .  A
C3141      F3148   1.358       .  S
C3142      C3143   1.405       .  A
C3142      F3147   1.358       .  S
C3143      C3144   1.412       .  A
C3144      F3145   1.358       .  S
C3149      C3150   1.411       .  A
C3149      C3154   1.403       .  A
C3149      F3156   1.358       .  S
C3150      C3151   1.409       .  A
C3151      C3152   1.399       .  A
C3151      F3158   1.358       .  S
C3152      C3153   1.404       .  A
C3152      F3157   1.358       .  S
C3153      C3154   1.405       .  A
C3154      F3155   1.358       .  S
C3159      C3160   1.403       .  A
C3159      C3164   1.400       .  A
C3159      F3166   1.357       .  S
C3160      C3161   1.413       .  A
C3161      C3162   1.399       .  A
C3161      F3168   1.359       .  S
C3162      C3163   1.406       .  A
C3162      F3167   1.358       .  S
C3163      C3164   1.411       .  A
C3164      F3165   1.357       .  S
