geometry optimzed in LAMMPS
_audit_creation_date              2020-12-01 
_audit_creation_method            'lammps2cif' 
_symmetry_space_group_name_H-M    'P1' 
_symmetry_Int_Tables_number       1 
_symmetry_cell_setting            triclinic 
loop_ 
_symmetry_equiv_pos_as_xyz 
  x,y,z 
_cell_length_a                    49.34695467 
_cell_length_b                    49.39255249446085 
_cell_length_c                    48.19724551203987 
_cell_angle_alpha                 90.00066316729863 
_cell_angle_beta                  90.24360568859615 
_cell_angle_gamma                 120.38918184115934 
loop_ 
_atom_site_label 
_atom_site_type_symbol 
_atom_site_fract_x 
_atom_site_fract_y 
_atom_site_fract_z 
_atom_site_charge 
In1        In  0.32269447  0.39232991  0.44095172     1.36900
C2          C  0.34217431  0.44200131  0.47384121     0.77700
O3          O  0.32565032  0.36812693  0.47841485    -0.60800
O4          O  0.36117479  0.38068407  0.44792813    -0.51700
C5          C  0.26882701  0.33909384  0.43215032     0.70300
O6          O  0.27013644  0.36159972  0.44584841    -0.46500
C7          C  0.33077010  0.42011662  0.39194525     0.75000
O8          O  0.31322582  0.42294486  0.46970193    -0.58400
O9          O  0.34609429  0.40691281  0.39886990    -0.48500
O10         O  0.36047801  0.43600070  0.46054232    -0.54800
C11         C  0.35048822  0.36847675  0.47145274     0.85200
O12         O  0.29483915  0.34431930  0.42267470    -0.56700
O13         O  0.31151397  0.41826781  0.40994841    -0.60000
In14       In  0.43354654  0.10280484  0.57469379     1.36900
C15         C  0.39999688  0.05255207  0.54271572     0.77700
O16         O  0.46440220  0.13065425  0.53918006    -0.60800
O17         O  0.48071516  0.10725214  0.56530799    -0.51700
C18         C  0.43118202  0.15473322  0.58337477     0.70300
O19         O  0.41076047  0.13198565  0.56908671    -0.46500
C20         C  0.41638218  0.07522321  0.62432747     0.75000
O21         O  0.39324081  0.07403812  0.54448714    -0.58400
O22         O  0.44462460  0.08899170  0.61625191    -0.48500
O23         O  0.42292896  0.05710217  0.55759968    -0.54800
C24         C  0.48514720  0.12342318  0.54366296     0.85200
O25         O  0.45262506  0.15074475  0.59344940    -0.56700
O26         O  0.39780762  0.07727820  0.60759356    -0.60000
In27       In  0.42908998  0.32411607  0.60650525     1.36900
C28         C  0.39635487  0.34140873  0.63858043     0.77700
O29         O  0.45994047  0.33066647  0.64260359    -0.60800
O30         O  0.48006118  0.36414118  0.61024145    -0.51700
C31         C  0.42677515  0.26929827  0.59856237     0.70300
O32         O  0.40753089  0.27203550  0.61386586    -0.46500
C33         C  0.40646024  0.33119040  0.55829273     0.75000
O34         O  0.39342615  0.31450999  0.64040631    -0.58400
O35         O  0.43509975  0.34841061  0.56501757    -0.48500
O36         O  0.41601827  0.35903863  0.62080672    -0.54800
C37         C  0.48380446  0.35497235  0.63372933     0.85200
O38         O  0.44657120  0.29453454  0.58687579    -0.56700
O39         O  0.39073136  0.30935778  0.57523745    -0.60000
In40       In  0.32758551  0.43080614  0.74072566     1.36900
C41         C  0.34249405  0.39674130  0.70823503     0.77700
O42         O  0.33264500  0.46138167  0.70496741    -0.60800
O43         O  0.36942483  0.47995427  0.73497571    -0.51700
C44         C  0.27283249  0.42749983  0.75059464     0.70300
O45         O  0.27479549  0.40606913  0.73807909    -0.46500
C46         C  0.33603455  0.41063007  0.78942830     0.75000
O47         O  0.35995096  0.41413494  0.72746656    -0.58400
O48         O  0.35230698  0.43923944  0.78247621    -0.48500
O49         O  0.31700729  0.39669733  0.70525274    -0.54800
C50         C  0.35891983  0.48403446  0.71232239     0.85200
O51         O  0.29893132  0.45039472  0.75827271    -0.56700
O52         O  0.31497904  0.39379102  0.77210453    -0.60000
In53       In  0.10226622  0.42731938  0.77079141     1.36900
C54         C  0.05304186  0.39127348  0.80265569     0.77700
O55         O  0.10526575  0.47385543  0.78080756    -0.60800
O56         O  0.13011483  0.45837357  0.80598057    -0.51700
C57         C  0.15538157  0.42684758  0.76326469     0.70300
O58         O  0.13127217  0.40407946  0.77408083    -0.46500
C59         C  0.07694664  0.41091484  0.71992416     0.75000
O60         O  0.07919081  0.39284945  0.80599407    -0.58400
O61         O  0.08809396  0.43851000  0.72936427    -0.48500
O62         O  0.05204116  0.40718571  0.78274459    -0.54800
C63         C  0.12260703  0.47887005  0.80186772     0.85200
O64         O  0.15159031  0.44909494  0.75524717    -0.56700
O65         O  0.08065997  0.39282726  0.73598422    -0.60000
In66       In  0.39534557  0.32403397  0.90469568     1.36900
C67         C  0.44590295  0.33959022  0.87413228     0.77700
O68         O  0.36969807  0.32885603  0.86887172    -0.60800
O69         O  0.38635916  0.36484982  0.89916140    -0.51700
C70         C  0.34391120  0.26841957  0.91339531     0.70300
O71         O  0.36286318  0.27324034  0.89392527    -0.46500
C72         C  0.42451297  0.33266404  0.95314103     0.75000
O73         O  0.42136719  0.31288599  0.87245108    -0.58400
O74         O  0.41160771  0.34833727  0.94630678    -0.48500
O75         O  0.44435911  0.35798681  0.89127043    -0.54800
C76         C  0.37247009  0.35457110  0.87614499     0.85200
O77         O  0.35164026  0.29189851  0.92885214    -0.56700
O78         O  0.42079084  0.31199474  0.93567420    -0.60000
In79       In  0.07100670  0.16917138  0.10309281     1.36900
C80         C  0.10918870  0.15577710  0.13138252     0.77700
O81         O  0.04415613  0.16159154  0.14190503    -0.60800
O82         O  0.02109742  0.12820172  0.10984240    -0.51700
C83         C  0.07185540  0.22324726  0.09608322     0.70300
O84         O  0.09111104  0.22065201  0.11159679    -0.46500
C85         C  0.08910905  0.16200605  0.05325402     0.75000
O86         O  0.10837841  0.18062224  0.13540252    -0.58400
O87         O  0.06155437  0.14362109  0.06207841    -0.48500
O88         O  0.09108764  0.13827541  0.11250571    -0.54800
C89         C  0.01972781  0.13704717  0.13417346     0.85200
O90         O  0.05264731  0.19825211  0.08358961    -0.56700
O91         O  0.10585024  0.18461295  0.06935865    -0.60000
In92       In  0.17503169  0.06630129  0.23575176     1.36900
C93         C  0.16284515  0.10229177  0.20299850     0.77700
O94         O  0.16744253  0.03528503  0.19958735    -0.60800
O95         O  0.13129419  0.01794319  0.22970038    -0.51700
C96         C  0.22814838  0.06520371  0.24376718     0.70300
O97         O  0.22777018  0.08836740  0.23300044    -0.46500
C98         C  0.16580142  0.08505615  0.28522592     0.75000
O99         O  0.18693993  0.09993396  0.19963324    -0.58400
O100        O  0.14899701  0.05724876  0.27629998    -0.48500
O101        O  0.14575455  0.08665168  0.22294377    -0.54800
C102        C  0.14095594  0.01324476  0.20694004     0.85200
O103        O  0.20155144  0.04355589  0.25164754    -0.56700
O104        O  0.18848382  0.10237823  0.26951831    -0.60000
In105      In  0.39330256  0.05556513  0.26685390     1.36900
C106        C  0.44044712  0.08361472  0.30306312     0.77700
O107        O  0.36427786  0.02727815  0.30203823    -0.60800
O108        O  0.38034216  0.00509332  0.27403629    -0.51700
C109        C  0.34280289  0.06011699  0.25622267     0.70300
O110        O  0.36555056  0.07988157  0.27092620    -0.46500
C111        C  0.42602413  0.07625768  0.21986213     0.75000
O112        O  0.42195387  0.09380672  0.29826499    -0.58400
O113        O  0.41067769  0.04731521  0.22579128    -0.48500
O114        O  0.43487738  0.05982334  0.28899824    -0.54800
C115        C  0.36579335  0.00316695  0.29626029     0.85200
O116        O  0.34627666  0.03833089  0.24640290    -0.56700
O117        O  0.42335663  0.09358742  0.23750290    -0.60000
In118      In  0.10263868  0.16439435  0.40500583     1.36900
C119        C  0.05060429  0.14203800  0.37434616     0.77700
O120        O  0.12777506  0.16333339  0.36692229    -0.60800
O121        O  0.11734964  0.12818155  0.39730674    -0.51700
C122        C  0.15364521  0.22023818  0.41365998     0.70300
O123        O  0.13052294  0.21678502  0.39933641    -0.46500
C124        C  0.07450486  0.15530204  0.45441332     0.75000
O125        O  0.07052611  0.17112164  0.37564821    -0.58400
O126        O  0.08665695  0.13929721  0.44655512    -0.48500
O127        O  0.05776522  0.12514404  0.38860308    -0.54800
C128        C  0.12903735  0.13932192  0.37373845     0.85200
O129        O  0.15036191  0.19502715  0.42353559    -0.56700
O130        O  0.07807855  0.17629500  0.43748084    -0.60000
In131      In  0.06541702  0.39004545  0.07421184     1.36900
C132        C  0.09887387  0.44140986  0.04377679     0.77700
O133        O  0.03653894  0.36408075  0.03773273    -0.60800
O134        O  0.01576841  0.38048215  0.06677748    -0.51700
C135        C  0.06846027  0.33821029  0.08183447     0.70300
O136        O  0.08308107  0.35762470  0.06268679    -0.46500
C137        C  0.08505346  0.41907658  0.12290417     0.75000
O138        O  0.10718245  0.42122765  0.04718733    -0.58400
O139        O  0.05624014  0.40489456  0.11605606    -0.48500
O140        O  0.07362603  0.43480276  0.05577538    -0.54800
C141        C  0.01333683  0.36697984  0.04378877     0.85200
O142        O  0.05273782  0.34560556  0.09750458    -0.56700
O143        O  0.10266869  0.41682356  0.10531738    -0.60000
In144      In  0.17170722  0.09976468  0.93822930     1.36900
C145        C  0.15369926  0.05095165  0.97160554     0.77700
O146        O  0.16859776  0.12674939  0.97384612    -0.60800
O147        O  0.13247539  0.11080916  0.94337234    -0.51700
C148        C  0.22737944  0.15136272  0.93095678     0.70300
O149        O  0.22270577  0.13121383  0.94932301    -0.46500
C150        C  0.16072802  0.07023115  0.88944323     0.75000
O151        O  0.18228979  0.06879664  0.96555019    -0.58400
O152        O  0.14641380  0.08425168  0.89682739    -0.48500
O153        O  0.13497861  0.05764285  0.95991432    -0.54800
C154        C  0.14316360  0.12477551  0.96631037     0.85200
O155        O  0.20366466  0.14468477  0.91607094    -0.56700
O156        O  0.18091153  0.07224077  0.90673258    -0.60000
C157        C  0.11665835  0.47072433  0.02733232    -0.00100
C158        C  0.10770075  0.49349617  0.02969854    -0.11900
C159        C  0.11976100  0.02037821  0.01143225     0.02200
C160        C  0.14229678  0.02467156  0.99139939    -0.00200
C161        C  0.15203381  0.00253167  0.98926764    -0.11900
C162        C  0.14152927  0.47653694  0.00916672     0.02100
H163        H  0.08933333  0.49000751  0.04404812     0.15000
H164        H  0.16948389  0.00584148  0.97394942     0.15000
C165        C  0.15220222  0.45437683  0.00601584     0.36700
C166        C  0.11111533  0.04394236  0.01614005     0.36600
N167        N  0.16066526  0.43651488  0.00359943    -0.43700
N168        N  0.10463945  0.06312209  0.01990614    -0.43700
C169        C  0.46693883  0.09827523  0.32315904    -0.00100
C170        C  0.48198383  0.13068359  0.32841748    -0.11900
C171        C  0.00927052  0.14565139  0.34481311     0.02200
C172        C  0.02131870  0.12794695  0.35731076    -0.00200
C173        C  0.00483021  0.09521722  0.35357472    -0.11900
C174        C  0.47840465  0.08048632  0.33635149     0.02100
H175        H  0.47306174  0.14450384  0.31880060     0.15000
H176        H  0.01315798  0.08104445  0.36349450     0.15000
C177        C  0.46257411  0.04671137  0.33391583     0.36700
C178        C  0.02373363  0.17904775  0.34913855     0.37800
N179        N  0.44989524  0.01964579  0.33219240    -0.43700
N180        N  0.03512474  0.20580745  0.35266476    -0.43700
C181        C  0.15871047  0.09739105  0.31094202    -0.00100
C182        C  0.17686190  0.12973201  0.31681788    -0.11900
C183        C  0.16854885  0.14354220  0.33810404     0.02200
C184        C  0.14185710  0.12491760  0.35458837    -0.00200
C185        C  0.12495787  0.09235128  0.35012243    -0.11900
C186        C  0.13281644  0.07855164  0.32838659     0.02100
H187        H  0.19700582  0.14467489  0.30399730     0.15000
H188        H  0.10431582  0.07782012  0.36258293     0.15000
C189        C  0.11288134  0.04527912  0.32370754     0.36700
C190        C  0.18764154  0.17701735  0.34246214     0.36600
N191        N  0.09682024  0.01863754  0.31976593    -0.43700
N192        N  0.20289781  0.20382691  0.34600837    -0.43700
C193        C  0.31389641  0.06177802  0.25164449    -0.00100
C194        C  0.28466936  0.03387369  0.25103508    -0.11900
C195        C  0.25656804  0.03439799  0.24869656     0.02200
C196        C  0.25734137  0.06340526  0.24647648    -0.00200
C197        C  0.28674758  0.09125464  0.24610049    -0.11900
C198        C  0.31480144  0.09066670  0.24882577     0.02100
H199        H  0.28372255  0.01151569  0.25299809     0.15000
H200        H  0.28786693  0.11366646  0.24391864     0.15000
C201        C  0.34433817  0.11991542  0.24772775     0.36700
C202        C  0.22740755  0.00471109  0.24804141     0.36600
N203        N  0.36820589  0.14314966  0.24676488    -0.43700
N204        N  0.20462021  0.48166988  0.24537853    -0.43700
C205        C  0.09792674  0.43869664  0.14842923    -0.00100
C206        C  0.07912004  0.44728680  0.16366824    -0.11900
C207        C  0.09224589  0.47052094  0.18449013     0.02200
C208        C  0.12482107  0.48578758  0.19007742    -0.00200
C209        C  0.14297282  0.47549711  0.17637449    -0.11900
C210        C  0.12993080  0.45201406  0.15611220     0.02100
H211        H  0.05446558  0.43705050  0.15838192     0.15000
H212        H  0.16604391  0.98325905  0.18227768     0.15000
C213        C  0.15042264  0.44273840  0.14330389     0.36700
C214        C  0.07224876  0.47975185  0.19823358     0.36600
N215        N  0.16454546  0.93164818  0.13441240    -0.43700
N216        N  0.05596140  0.48692540  0.20913536    -0.43700
C217        C  0.12746768  0.13729546  0.98403715    -0.00100
C218        C  0.14660025  0.16440929  0.99960233    -0.11900
C219        C  0.13421683  0.17432002  0.02069552     0.02200
C220        C  0.10184294  0.15632167  0.02729010    -0.00200
C221        C  0.08225802  0.13036976  0.01036124    -0.11900
C222        C  0.09471905  0.12097180  0.98867113     0.02100
H223        H  0.17173400  0.17744785  0.99585190     0.15000
H224        H  0.05734334  0.11654609  0.01478756     0.15000
C225        C  0.07371742  0.09325620  0.97291752     0.36700
C226        C  0.15585575  0.20228500  0.03592005     0.36600
N227        N  0.05677676  0.07105787  0.96029745    -0.43700
N228        N  0.17315822  0.22469674  0.04812175    -0.43700
C229        C  0.06930527  0.30884227  0.08531089    -0.00100
C230        C  0.07836824  0.30235683  0.11093213    -0.11900
C231        C  0.08004282  0.27502879  0.11472846     0.02200
C232        C  0.07154443  0.25304782  0.09283002    -0.00200
C233        C  0.06181900  0.25933035  0.06739474    -0.11900
C234        C  0.06107840  0.28709850  0.06338139     0.02100
H235        H  0.08461028  0.31893245  0.12790304     0.15000
H236        H  0.05508842  0.24263929  0.05045817     0.15000
C237        C  0.05084019  0.29234944  0.03684333     0.36700
C238        C  0.08969703  0.26973168  0.14153132     0.36600
N239        N  0.54193263  0.29600823  0.01557975    -0.43700
N240        N  0.09748794  0.26543634  0.16296869    -0.43700
C241        C  0.12781815  0.14657036  0.14885479    -0.00100
C242        C  0.12667270  0.14956020  0.17765289    -0.11900
C243        C  0.13936791  0.13660495  0.19562396     0.02200
C244        C  0.15413946  0.12077784  0.18478518    -0.00200
C245        C  0.15738901  0.11980082  0.15593751    -0.11900
C246        C  0.14401876  0.13221574  0.13789343     0.02100
H247        H  0.11440988  0.16070507  0.18619899     0.15000
H248        H  0.16891123  0.10788484  0.14745814     0.15000
C249        C  0.14718307  0.12986999  0.10834147     0.36700
C250        C  0.13676305  0.13976501  0.22514338     0.36600
N251        N  0.14995930  0.12799834  0.08469838    -0.43700
N252        N  0.13473440  0.14239574  0.24878473    -0.43700
C253        C  0.49208906  0.12051012  0.15282355    -0.00100
C254        C  0.47598288  0.08765115  0.15516247    -0.11900
C255        C  0.45352883  0.07226961  0.17617800     0.02200
C256        C  0.44664126  0.08993108  0.19508045    -0.00200
C257        C  0.46151455  0.12262005  0.19137939    -0.11900
C258        C  0.98424564  0.13783663  0.17094774     0.02100
H259        H  0.48206476  0.07412974  0.14149345     0.15000
H260        H  0.45625305  0.13666301  0.20518920     0.15000
C261        C  0.99882753  0.17156613  0.16887166     0.36700
C262        C  0.43897065  0.03862944  0.17840523     0.36600
N263        N  0.01057268  0.19856446  0.16713912    -0.43700
N264        N  0.42734508  0.01164615  0.18016285    -0.43700
C265        C  0.44384796  0.33887414  0.97880070    -0.00100
C266        C  0.45069417  0.36494282  0.99561199    -0.11900
C267        C  0.47204035  0.37383954  0.01792995     0.02200
C268        C  0.48654952  0.35614560  0.02404516    -0.00200
C269        C  0.47867810  0.32944829  0.00809733    -0.11900
C270        C  0.45790422  0.32079644  0.98565473     0.02100
H271        H  0.44053686  0.37934549  0.99053791     0.15000
H272        H  0.48994010  0.31587073  0.01252125     0.15000
C273        C  0.45308308  0.29415335  0.96936971     0.36700
C274        C  0.98015802  0.40214528  0.03317000     0.36600
N275        N  0.44965424  0.27296809  0.95631437    -0.43700
N276        N  0.98711045  0.42525918  0.04484293    -0.43700
C277        C  0.25802784  0.18061157  0.92697148    -0.00100
C278        C  0.26643052  0.19296571  0.90009607    -0.11900
C279        C  0.29468798  0.22095077  0.89516641     0.02200
C280        C  0.31470293  0.23785674  0.91755891    -0.00200
C281        C  0.30628864  0.22565871  0.94449181    -0.11900
C282        C  0.27857864  0.19696729  0.94929242     0.02100
H283        H  0.25093520  0.18056892  0.88279109     0.15000
H284        H  0.32160924  0.23840827  0.96178937     0.15000
C285        C  0.27150720  0.18529727  0.97736562     0.36700
C286        C  0.30195803  0.23231157  0.86701758     0.36600
N287        N  0.26593317  0.17581916  0.99983224    -0.43700
N288        N  0.30767760  0.24124114  0.84439984    -0.43700
C289        C  0.02596009  0.37370731  0.82120181    -0.00100
C290        C  0.03038992  0.37910233  0.84986583    -0.11900
C291        C  0.50470318  0.36779104  0.86753769     0.02200
C292        C  0.47393531  0.34926264  0.85679801    -0.00200
C293        C  0.46977062  0.34200982  0.82840180    -0.11900
C294        C  0.49554073  0.35459806  0.81043078     0.02100
H295        H  0.05391848  0.39385402  0.85808224     0.15000
H296        H  0.44623435  0.32783944  0.82001492     0.15000
C297        C  0.48996210  0.34781777  0.78113077     0.36700
C298        C  0.01034755  0.37483584  0.89698495     0.36600
N299        N  0.48554303  0.34241690  0.75764232    -0.43700
N300        N  0.01505684  0.38084587  0.92036403    -0.43700
C301        C  0.13390084  0.00672793  0.81985765    -0.00100
C302        C  0.16426312  0.02013626  0.83108884    -0.11900
C303        C  0.17425971  0.04245005  0.85240796     0.02200
C304        C  0.15336834  0.05134635  0.86348838    -0.00200
C305        C  0.12359080  0.03934921  0.85102989    -0.11900
C306        C  0.11261007  0.51541975  0.83142685     0.02100
H307        H  0.18006498  0.01260895  0.82355193     0.15000
H308        H  0.10732907  0.04596480  0.85916240     0.15000
C309        C  0.08031698  0.50050853  0.82228473     0.36700
C310        C  0.20616131  0.05567385  0.86231547     0.36600
N311        N  0.05433843  0.48831776  0.81516405    -0.43700
N312        N  0.23185338  0.06619678  0.86986895    -0.43700
C313        C  0.34209268  0.39706810  0.81478034    -0.00100
C314        C  0.36738779  0.41640657  0.83253471    -0.11900
C315        C  0.37673062  0.40348439  0.85403252     0.02200
C316        C  0.36056537  0.37067657  0.85808186    -0.00200
C317        C  0.33424225  0.35170409  0.84150357    -0.11900
C318        C  0.32489380  0.36436062  0.82013994     0.02100
H319        H  0.38082110  0.44142271  0.82883718     0.15000
H320        H  0.32156131  0.32652317  0.84453905     0.15000
C321        C  0.29848168  0.34253425  0.80330104     0.36700
C322        C  0.40447121  0.42410032  0.86998564     0.36600
N323        N  0.27745012  0.32493697  0.78976744    -0.43700
N324        N  0.42680927  0.44063948  0.88266876    -0.43700
C325        C  0.24261110  0.42663602  0.75509519    -0.00100
C326        C  0.24283902  0.45515548  0.75622473    -0.11900
C327        C  0.21489621  0.45584919  0.75872788     0.02200
C328        C  0.18572951  0.42745649  0.76055834    -0.00200
C329        C  0.18562742  0.39894997  0.76043658    -0.11900
C330        C  0.21359308  0.39828162  0.75761424     0.02100
H331        H  0.26496516  0.47711294  0.75457971     0.15000
H332        H  0.16354021  0.37699984  0.76230435     0.15000
C333        C  0.21182383  0.36820901  0.75834507     0.36700
C334        C  0.21714409  0.48614277  0.75988122     0.36600
N335        N  0.21022011  0.34402015  0.75910759    -0.43700
N336        N  0.22165133  0.01098295  0.76044546    -0.43700
C337        C  0.37870870  0.35207217  0.65587522    -0.00100
C338        C  0.37630799  0.34655447  0.68459529    -0.11900
C339        C  0.36360618  0.36015561  0.70195477     0.02200
C340        C  0.35201581  0.37864542  0.69044867    -0.00200
C341        C  0.35259671  0.38251458  0.66163260    -0.11900
C342        C  0.36631171  0.36992350  0.64438476     0.02100
H343        H  0.38575226  0.33291317  0.69363333     0.15000
H344        H  0.34383617  0.39680278  0.65271809     0.15000
C345        C  0.36781229  0.37607265  0.61496685     0.36700
C346        C  0.36289398  0.35518245  0.73156068     0.36600
N347        N  0.36918894  0.38112360  0.59141070    -0.43700
N348        N  0.36217677  0.35147807  0.75532097    -0.43700
C349        C  0.01311128  0.37097373  0.65045706    -0.00100
C350        C  0.02831512  0.40349249  0.65502428    -0.11900
C351        C  0.05104871  0.41777720  0.67620666     0.02200
C352        C  0.05872317  0.39923892  0.69337326    -0.00200
C353        C  0.04574171  0.36730601  0.68661171    -0.11900
C354        C  0.02332970  0.35321252  0.66544601     0.02100
H355        H  0.52113055  0.41756653  0.64316827     0.15000
H356        H  0.05203923  0.35272001  0.69876930     0.15000
C357        C  0.01064580  0.32024379  0.65963152     0.36700
C358        C  0.06514925  0.45114283  0.68046383     0.36600
N359        N  0.00042208  0.29390464  0.65464254    -0.43700
N360        N  0.07658132  0.47794065  0.68378284    -0.43700
C361        C  0.40486106  0.05655134  0.65037172    -0.00100
C362        C  0.37428978  0.04739956  0.65930715    -0.11900
C363        C  0.35981735  0.02529155  0.68047728     0.02200
C364        C  0.37597886  0.01195226  0.69341027    -0.00200
C365        C  0.40734573  0.02281667  0.68620584    -0.11900
C366        C  0.42182822  0.04477160  0.66474829     0.02100
H367        H  0.36108751  0.05660487  0.64899148     0.15000
H368        H  0.41985078  0.01255222  0.69602355     0.15000
C369        C  0.45315594  0.05282388  0.65667648     0.36700
C370        C  0.32786753  0.51611294  0.68888458     0.36600
N371        N  0.47823335  0.05914506  0.65017849    -0.43700
N372        N  0.30247560  0.50880778  0.69523268    -0.43700
C373        C  0.01140830  0.13232923  0.52401433    -0.00100
C374        C  0.02733299  0.16296231  0.51350403    -0.11900
C375        C  0.04939184  0.17150358  0.49211583     0.02200
C376        C  0.05572861  0.14895654  0.48037206    -0.00200
C377        C  0.04082963  0.11863545  0.49185501    -0.11900
C378        C  0.01865345  0.11011082  0.51326063     0.02100
H379        H  0.02197050  0.18020025  0.52165771     0.15000
H380        H  0.04504563  0.10093157  0.48295409     0.15000
C381        C  0.00139422  0.07764986  0.52175420     0.36700
C382        C  0.06487990  0.20359959  0.48259375     0.36600
N383        N  0.98737579  0.05151929  0.52820365    -0.43700
N384        N  0.07719965  0.22939854  0.47516872    -0.43700
C385        C  0.43029867  0.18400232  0.58758196    -0.00100
C386        C  0.40274209  0.18225621  0.59740656    -0.11900
C387        C  0.40097467  0.20951574  0.60146544     0.02200
C388        C  0.42700398  0.23936276  0.59492884    -0.00200
C389        C  0.45444240  0.24084724  0.58479935    -0.11900
C390        C  0.45637829  0.21365938  0.58139206     0.02100
H391        H  0.38259136  0.15947833  0.60220093     0.15000
H392        H  0.47468293  0.26342474  0.57970283     0.15000
C393        C  0.48501298  0.21667566  0.57053348     0.36700
C394        C  0.37191943  0.20589906  0.61180625     0.36600
N395        N  0.00785475  0.21900633  0.56212715    -0.43700
N396        N  0.34853962  0.20277829  0.62012234    -0.43700
C397        C  0.35226463  0.47691768  0.31824246    -0.00100
C398        C  0.32981402  0.47508174  0.33707991    -0.11900
C399        C  0.32131419  0.45570385  0.36036082     0.02200
C400        C  0.33559034  0.43744797  0.36543404    -0.00200
C401        C  0.35622722  0.43738062  0.34540555    -0.11900
C402        C  0.36446317  0.45670175  0.32183473     0.02100
H403        H  0.31725974  0.98578858  0.32995101     0.15000
H404        H  0.36683215  0.42300671  0.34860535     0.15000
C405        C  0.38672658  0.45652527  0.30264160     0.36700
C406        C  0.29904819  0.45657245  0.37919796     0.36600
N407        N  0.40449466  0.45622248  0.28723396    -0.43700
N408        N  0.28125619  0.45742374  0.39422519    -0.43700
C409        C  0.38372320  0.02425814  0.52462126    -0.00100
C410        C  0.39592696  0.00398191  0.52437681    -0.11900
C411        C  0.37863793  0.47440404  0.51218774     0.02200
C412        C  0.35437080  0.46877861  0.49339102    -0.00200
C413        C  0.34323253  0.48992222  0.49243833    -0.11900
C414        C  0.35773930  0.01716793  0.50723410     0.02100
H415        H  0.41581335  0.00882761  0.53747866     0.15000
H416        H  0.32476819  0.48586281  0.47782416     0.15000
C417        C  0.34484043  0.03762339  0.50549456     0.36700
C418        C  0.39092680  0.45341374  0.51441106     0.36600
N419        N  0.33466074  0.05415517  0.50387654    -0.43700
N420        N  0.40101240  0.43682053  0.51620371    -0.43700
C421        C  0.39178950  0.33720793  0.53366354    -0.00100
C422        C  0.41079839  0.35720605  0.51231767    -0.11900
C423        C  0.39794873  0.36663217  0.49079399     0.02200
C424        C  0.36538224  0.35589574  0.49038434    -0.00200
C425        C  0.34633440  0.33466296  0.51083293    -0.11900
C426        C  0.35901011  0.32553149  0.53235289     0.02100
H427        H  0.43596099  0.36643951  0.51297761     0.15000
H428        H  0.32126641  0.32609713  0.51076643     0.15000
C429        C  0.33779770  0.30634340  0.55398184     0.36700
C430        C  0.41899790  0.38894629  0.47068429     0.36600
N431        N  0.32064916  0.29129032  0.57135220    -0.43700
N432        N  0.43598119  0.40695590  0.45468268    -0.43700
C433        C  0.23935151  0.30871567  0.42773374    -0.00100
C434        C  0.21115788  0.30832174  0.42241595    -0.11900
C435        C  0.18301865  0.27994002  0.41750765     0.02200
C436        C  0.18268023  0.25112551  0.41835301    -0.00200
C437        C  0.21085823  0.25162616  0.42417493    -0.11900
C438        C  0.23899745  0.27995198  0.42864055     0.02100
H439        H  0.21117699  0.33028471  0.42179095     0.15000
H440        H  0.21099973  0.22975068  0.42506148     0.15000
C441        C  0.26697917  0.27874081  0.43513457     0.36700
C442        C  0.15470607  0.28103491  0.41264618     0.36600
N443        N  0.28943584  0.27787950  0.44040214    -0.43700
N444        N  0.13194561  0.28182808  0.40884246    -0.43700
In445      In  0.32483692  0.89285987  0.43875069     1.36900
C446        C  0.34501372  0.94324991  0.47077035     0.77700
O447        O  0.32755464  0.86911440  0.47665471    -0.60800
O448        O  0.36288329  0.88056578  0.44624289    -0.51700
C449        C  0.27037626  0.84015749  0.43040296     0.70300
O450        O  0.27223020  0.86309194  0.44378061    -0.46500
C451        C  0.33241031  0.91980074  0.38936928     0.75000
O452        O  0.31598937  0.92391375  0.46741962    -0.58400
O453        O  0.34753918  0.90636962  0.39626485    -0.48500
O454        O  0.36301692  0.93710332  0.45712809    -0.54800
C455        C  0.35212341  0.86883316  0.46989460     0.85200
O456        O  0.29617184  0.84463650  0.42103060    -0.56700
O457        O  0.31383463  0.91880780  0.40768147    -0.60000
In458      In  0.43362336  0.60296121  0.57574011     1.36900
C459        C  0.39899121  0.55183838  0.54494709     0.77700
O460        O  0.46239457  0.62894622  0.53864338    -0.60800
O461        O  0.48175612  0.60958425  0.56618849    -0.51700
C462        C  0.43152242  0.65515219  0.58437687     0.70300
O463        O  0.41052487  0.63202978  0.57085798    -0.46500
C464        C  0.41679330  0.57552753  0.62554451     0.75000
O465        O  0.39259544  0.57358290  0.54652925    -0.58400
O466        O  0.44482802  0.58835807  0.61698391    -0.48500
O467        O  0.42245228  0.55668356  0.55921669    -0.54800
C468        C  0.48461638  0.62398284  0.54367989     0.85200
O469        O  0.45335312  0.65138341  0.59380388    -0.56700
O470        O  0.39844974  0.57850649  0.60922870    -0.60000
In471      In  0.43034840  0.82527903  0.60585932     1.36900
C472        C  0.39693325  0.84175737  0.63752292     0.77700
O473        O  0.46133484  0.83281385  0.64202265    -0.60800
O474        O  0.48084477  0.86639794  0.60967966    -0.51700
C475        C  0.42831798  0.77050789  0.59874111     0.70300
O476        O  0.40909212  0.77345935  0.61385374    -0.46500
C477        C  0.40724166  0.83156896  0.55759189     0.75000
O478        O  0.39431379  0.81500261  0.63941109    -0.58400
O479        O  0.43611116  0.84829064  0.56375296    -0.48500
O480        O  0.41683165  0.85972315  0.62005145    -0.54800
C481        C  0.48482999  0.85747744  0.63319627     0.85200
O482        O  0.44816651  0.79561258  0.58690066    -0.56700
O483        O  0.39142283  0.81054144  0.57514976    -0.60000
In484      In  0.32829138  0.93043959  0.73935687     1.36900
C485        C  0.34228859  0.89647210  0.70612118     0.77700
O486        O  0.33257932  0.96124996  0.70401985    -0.60800
O487        O  0.37007704  0.97945926  0.73330594    -0.51700
C488        C  0.27371727  0.92690228  0.75031658     0.70300
O489        O  0.27553868  0.90573242  0.73719353    -0.46500
C490        C  0.33829537  0.91033101  0.78740167     0.75000
O491        O  0.36044831  0.91423139  0.72482339    -0.58400
O492        O  0.35396035  0.93899977  0.78053155    -0.48500
O493        O  0.31659734  0.89614316  0.70390498    -0.54800
C494        C  0.35910971  0.98372827  0.71102802     0.85200
O495        O  0.29987171  0.94953112  0.75824163    -0.56700
O496        O  0.31703659  0.89326668  0.77031872    -0.60000
In497      In  0.10346450  0.92791226  0.77013613     1.36900
C498        C  0.05418042  0.89071268  0.80175786     0.77700
O499        O  0.10634589  0.97447740  0.77965148    -0.60800
O500        O  0.13029840  0.95874295  0.80571025    -0.51700
C501        C  0.15674666  0.92732145  0.76275737     0.70300
O502        O  0.13223196  0.90425509  0.77269368    -0.46500
C503        C  0.07814910  0.91308816  0.71917870     0.75000
O504        O  0.08051812  0.89269960  0.80500887    -0.58400
O505        O  0.08944680  0.94040770  0.72924213    -0.48500
O506        O  0.05313207  0.90701618  0.78222614    -0.54800
C507        C  0.12320443  0.97944722  0.80102398     0.85200
O508        O  0.15335879  0.95002976  0.75550088    -0.56700
O509        O  0.08186757  0.89452940  0.73458956    -0.60000
In510      In  0.39623425  0.82313123  0.90370813     1.36900
C511        C  0.44643852  0.83753721  0.87309153     0.77700
O512        O  0.37225088  0.82820972  0.86680143    -0.60800
O513        O  0.39013664  0.86528538  0.89631776    -0.51700
C514        C  0.34317861  0.76878927  0.91175809     0.70300
O515        O  0.36690743  0.77044008  0.90015368    -0.46500
C516        C  0.42262465  0.83142691  0.95360094     0.75000
O517        O  0.42043995  0.81258253  0.86927874    -0.58400
O518        O  0.41086046  0.84771832  0.94547091    -0.48500
O519        O  0.44652116  0.85466325  0.89246565    -0.54800
C520        C  0.37608940  0.85458823  0.87339744     0.85200
O521        O  0.34718057  0.79489187  0.91985714    -0.56700
O522        O  0.41897187  0.81031247  0.93673903    -0.60000
In523      In  0.07083466  0.66998787  0.10478468     1.36900
C524        C  0.10870471  0.65709188  0.13399999     0.77700
O525        O  0.04311267  0.66274478  0.14306207    -0.60800
O526        O  0.02129175  0.62850883  0.11141174    -0.51700
C527        C  0.07200875  0.72404579  0.09635932     0.70300
O528        O  0.09090864  0.72153216  0.11241147    -0.46500
C529        C  0.08992840  0.66157049  0.05581070     0.75000
O530        O  0.10808720  0.68211624  0.13755249    -0.58400
O531        O  0.06192419  0.64403754  0.06401046    -0.48500
O532        O  0.09027657  0.63913924  0.11552556    -0.54800
C533        C  0.01925141  0.63760005  0.13544045     0.85200
O534        O  0.05287926  0.69888994  0.08401736    -0.56700
O535        O  0.10666177  0.68413172  0.07195567    -0.60000
In536      In  0.17595721  0.56761125  0.23619729     1.36900
C537        C  0.16363665  0.60383349  0.20398909     0.77700
O538        O  0.16767484  0.53724073  0.19937589    -0.60800
O539        O  0.13270389  0.51875711  0.23055720    -0.51700
C540        C  0.22897986  0.56617821  0.24387575     0.70300
O541        O  0.22869347  0.58945247  0.23326343    -0.46500
C542        C  0.16677265  0.58669235  0.28553419     0.75000
O543        O  0.18764413  0.60139291  0.20030927    -0.58400
O544        O  0.14986265  0.55889489  0.27661108    -0.48500
O545        O  0.14658782  0.58805118  0.22390288    -0.54800
C546        C  0.14182112  0.51459545  0.20727598     0.85200
O547        O  0.20237493  0.54460939  0.25180830    -0.56700
O548        O  0.18967382  0.60383699  0.26995767    -0.60000
In549      In  0.39303400  0.55489022  0.26764636     1.36900
C550        C  0.44114123  0.58296944  0.30274841     0.77700
O551        O  0.36452668  0.52795068  0.30349436    -0.60800
O552        O  0.37936156  0.50433300  0.27591296    -0.51700
C553        C  0.34304379  0.56009874  0.25668833     0.70300
O554        O  0.36582294  0.57976522  0.27143816    -0.46500
C555        C  0.42510064  0.57549136  0.22050657     0.75000
O556        O  0.42218046  0.59281030  0.29896436    -0.58400
O557        O  0.41006952  0.54652919  0.22649616    -0.48500
O558        O  0.43553251  0.55948164  0.28818417    -0.54800
C559        C  0.36539750  0.50337676  0.29826018     0.85200
O560        O  0.34619776  0.53800729  0.24710487    -0.56700
O561        O  0.42237672  0.59278405  0.23815667    -0.60000
In562      In  0.10297764  0.66615670  0.40484033     1.36900
C563        C  0.05099703  0.64271959  0.37415780     0.77700
O564        O  0.12823637  0.66511597  0.36673562    -0.60800
O565        O  0.11833742  0.63037409  0.39740602    -0.51700
C566        C  0.15394253  0.72209105  0.41329849     0.70300
O567        O  0.13112117  0.71849627  0.39841529    -0.46500
C568        C  0.07411180  0.65736337  0.45393928     0.75000
O569        O  0.07054878  0.67192743  0.37524133    -0.58400
O570        O  0.08676390  0.64162134  0.44663737    -0.48500
O571        O  0.05845452  0.62622296  0.38867452    -0.54800
C572        C  0.12982644  0.64133269  0.37373197     0.85200
O573        O  0.15021352  0.69703926  0.42398350    -0.56700
O574        O  0.07762178  0.67801638  0.43661644    -0.60000
In575      In  0.06481657  0.89032363  0.07297199     1.36900
C576        C  0.09732139  0.94136077  0.04196705     0.77700
O577        O  0.03433521  0.86255179  0.03773678    -0.60800
O578        O  0.01550000  0.88181958  0.06586286    -0.51700
C579        C  0.06903844  0.83909073  0.08044898     0.70300
O580        O  0.08277061  0.85820442  0.06087535    -0.46500
C581        C  0.08438251  0.91896140  0.12180121     0.75000
O582        O  0.10582183  0.92130714  0.04522665    -0.58400
O583        O  0.05548156  0.90383357  0.11529687    -0.48500
O584        O  0.07244412  0.93490752  0.05454680    -0.54800
C585        C  0.01193087  0.86683589  0.04354262     0.85200
O586        O  0.05364594  0.84650280  0.09651805    -0.56700
O587        O  0.10232393  0.91810321  0.10369955    -0.60000
In588      In  0.17223742  0.59896944  0.93965303     1.36900
C589        C  0.15614026  0.55144608  0.97423727     0.77700
O590        O  0.16908672  0.62420363  0.97662679    -0.60800
O591        O  0.13304270  0.60968388  0.94607577    -0.51700
C592        C  0.22680974  0.65106480  0.92953486     0.70300
O593        O  0.22520484  0.62726363  0.94094572    -0.46500
C594        C  0.16026003  0.56939468  0.89074021     0.75000
O595        O  0.18463265  0.57191621  0.97033498    -0.58400
O596        O  0.14529455  0.58244614  0.89892037    -0.48500
O597        O  0.13673988  0.55504421  0.96001532    -0.54800
C598        C  0.14375877  0.62275901  0.96936277     0.85200
O599        O  0.20050641  0.64801982  0.92344431    -0.56700
O600        O  0.18143409  0.57243415  0.90726508    -0.60000
C601        C  0.11449699  0.97031686  0.02499885    -0.00100
C602        C  0.10600167  0.99339373  0.02780050    -0.11900
C603        C  0.12188026  0.52074841  0.01370456     0.02200
C604        C  0.14529890  0.52564514  0.99446019    -0.00200
C605        C  0.15563020  0.50393306  0.99288704    -0.11900
C606        C  0.13831105  0.97540464  0.00585909     0.02100
H607        H  0.08841040  0.99039323  0.04284571     0.15000
H608        H  0.17374372  0.50770323  0.97813030     0.15000
C609        C  0.14826394  0.95275561  0.00208848     0.36700
C610        C  0.11255541  0.54387961  0.01783553     0.36600
N611        N  0.15608592  0.93444713  0.99922265    -0.43700
N612        N  0.10550759  0.56268840  0.02126757    -0.43700
C613        C  0.46808185  0.59771199  0.32237676    -0.00100
C614        C  0.48130705  0.62953838  0.32946923    -0.11900
C615        C  0.00843710  0.64515560  0.34574372     0.02200
C616        C  0.02184791  0.62811763  0.35699621    -0.00200
C617        C  0.00683659  0.59564646  0.35198660    -0.11900
C618        C  0.48132833  0.58060002  0.33377418     0.02100
H619        H  0.47092878  0.64275445  0.32138026     0.15000
H620        H  0.01622839  0.58195980  0.36102967     0.15000
C621        C  0.46728570  0.54716245  0.32958953     0.36700
C622        C  0.02087096  0.67791044  0.35208972     0.37800
N623        N  0.45593406  0.52034852  0.32644314    -0.43700
N624        N  0.03055592  0.70409064  0.35738008    -0.43700
C625        C  0.15952432  0.59916345  0.31109665    -0.00100
C626        C  0.17804752  0.63140753  0.31728961    -0.11900
C627        C  0.16970948  0.64530170  0.33851952     0.02200
C628        C  0.14262081  0.62684434  0.35462436    -0.00200
C629        C  0.12524048  0.59437544  0.34975304    -0.11900
C630        C  0.13309977  0.58052440  0.32807102     0.02100
H631        H  0.19854772  0.64620893  0.30479144     0.15000
H632        H  0.10423539  0.57999665  0.36184772     0.15000
C633        C  0.11256647  0.54744372  0.32288731     0.36700
C634        C  0.18924891  0.67865733  0.34328026     0.36600
N635        N  0.09602947  0.52097160  0.31849825    -0.43700
N636        N  0.20492490  0.70536879  0.34713763    -0.43700
C637        C  0.31437701  0.56212475  0.25184725    -0.00100
C638        C  0.28509470  0.53433268  0.25062596    -0.11900
C639        C  0.25712583  0.53506101  0.24810442     0.02200
C640        C  0.25807355  0.56418278  0.24642674    -0.00200
C641        C  0.28755164  0.59195278  0.24653453    -0.11900
C642        C  0.31549412  0.59115606  0.24934830     0.02100
H643        H  0.28398247  0.51186918  0.25223610     0.15000
H644        H  0.28880607  0.61445711  0.24468689     0.15000
C645        C  0.34510681  0.62035701  0.24863945     0.36700
C646        C  0.22793927  0.50545684  0.24661608     0.36600
N647        N  0.36898244  0.64360582  0.24794311    -0.43700
N648        N  0.20406426  0.98090106  0.24750924    -0.43700
C649        C  0.09688884  0.93804737  0.14759309    -0.00100
C650        C  0.07837840  0.94760419  0.16201898    -0.11900
C651        C  0.09150525  0.97071556  0.18290993     0.02200
C652        C  0.12371444  0.98457439  0.18964814    -0.00200
C653        C  0.14143288  0.97321510  0.17679606    -0.11900
C654        C  0.12841128  0.95007780  0.15622297     0.02100
H655        H  0.05411360  0.93845742  0.15584501     0.15000
H656        H  0.16788045  0.48653021  0.18105740     0.15000
C657        C  0.14839770  0.93979116  0.14404270     0.36700
C658        C  0.07212219  0.98160574  0.19521817     0.36600
N659        N  0.16695892  0.43537363  0.13318892    -0.43700
N660        N  0.05633795  0.99019525  0.20484307    -0.43700
C661        C  0.12837468  0.63526971  0.98753101    -0.00100
C662        C  0.14781524  0.66181304  0.00361302    -0.11900
C663        C  0.13563919  0.67194099  0.02470517     0.02200
C664        C  0.10299514  0.65507153  0.03046139    -0.00200
C665        C  0.08321013  0.62954156  0.01318792    -0.11900
C666        C  0.09556062  0.61968495  0.99174162     0.02100
H667        H  0.17302590  0.67418858  0.00029515     0.15000
H668        H  0.05815691  0.61640846  0.01712763     0.15000
C669        C  0.07430820  0.59216636  0.97587578     0.36700
C670        C  0.15779794  0.69871804  0.04094433     0.36600
N671        N  0.05716824  0.57004739  0.96326003    -0.43700
N672        N  0.17564024  0.72009209  0.05398400    -0.43700
C673        C  0.07039185  0.80998781  0.08405530    -0.00100
C674        C  0.07955859  0.80384595  0.10977693    -0.11900
C675        C  0.08094295  0.77642935  0.11401261     0.02200
C676        C  0.07202131  0.75396109  0.09248135    -0.00200
C677        C  0.06236719  0.75997370  0.06687478    -0.11900
C678        C  0.06199121  0.78788689  0.06239428     0.02100
H679        H  0.08597507  0.82070160  0.12653673     0.15000
H680        H  0.05540587  0.74296196  0.05018279     0.15000
C681        C  0.05196154  0.79292986  0.03566887     0.36700
C682        C  0.09065716  0.77149674  0.14093198     0.36600
N683        N  0.54276536  0.79625797  0.01437718    -0.43700
N684        N  0.09848180  0.76738914  0.16242790    -0.43700
C685        C  0.12796400  0.64832501  0.15104553    -0.00100
C686        C  0.12875533  0.65268358  0.17981737    -0.11900
C687        C  0.14172597  0.63962042  0.19739655     0.02200
C688        C  0.15496417  0.62253851  0.18610095    -0.00200
C689        C  0.15643864  0.62032600  0.15719441    -0.11900
C690        C  0.14267987  0.63269277  0.13961383     0.02100
H691        H  0.11762110  0.66479328  0.18870641     0.15000
H692        H  0.16669499  0.60734732  0.14838651     0.15000
C693        C  0.14352341  0.62864401  0.10999810     0.36700
C694        C  0.14079073  0.64372447  0.22698811     0.36600
N695        N  0.14419139  0.62540322  0.08627304    -0.43700
N696        N  0.14006783  0.64705791  0.25068867    -0.43700
C697        C  0.49134358  0.62063622  0.15388681    -0.00100
C698        C  0.47618675  0.58783461  0.15652004    -0.11900
C699        C  0.45347671  0.57207679  0.17725714     0.02200
C700        C  0.44556314  0.58932157  0.19569520    -0.00200
C701        C  0.45941247  0.62187175  0.19162280    -0.11900
C702        C  0.98254207  0.63742598  0.17144078     0.02100
H703        H  0.48313997  0.57469098  0.14326430     0.15000
H704        H  0.45322107  0.63554695  0.20499313     0.15000
C705        C  0.99583155  0.67094739  0.16877051     0.36700
C706        C  0.43962619  0.53852152  0.17963451     0.36600
N707        N  0.00644233  0.69776776  0.16652210    -0.43700
N708        N  0.42849829  0.51159684  0.18146566    -0.43700
C709        C  0.44114576  0.83767660  0.97978044    -0.00100
C710        C  0.45015722  0.86544491  0.99481988    -0.11900
C711        C  0.47204888  0.87485916  0.01673227     0.02200
C712        C  0.48456989  0.85580089  0.02449983    -0.00200
C713        C  0.47431676  0.82737210  0.01054505    -0.11900
C714        C  0.45315511  0.81826612  0.98834760     0.02100
H715        H  0.44169181  0.88090157  0.98832972     0.15000
H716        H  0.48414570  0.81279606  0.01619801     0.15000
C717        C  0.44595458  0.78974192  0.97391823     0.36700
C718        C  0.98322428  0.90520539  0.02909723     0.36600
N719        N  0.44063455  0.76705978  0.96228726    -0.43700
N720        N  0.99262266  0.92992563  0.03857101    -0.43700
C721        C  0.25683374  0.68060921  0.92418131    -0.00100
C722        C  0.25658591  0.70889015  0.92365425    -0.11900
C723        C  0.28418254  0.73767123  0.91939586     0.02200
C724        C  0.31310036  0.73868726  0.91555086    -0.00200
C725        C  0.31318637  0.71025284  0.91513797    -0.11900
C726        C  0.28546850  0.68139761  0.91941773     0.02100
H727        H  0.23468807  0.70858413  0.92682990     0.15000
H728        H  0.33502279  0.71054070  0.91165547     0.15000
C729        C  0.28692205  0.65297441  0.91768275     0.36700
C730        C  0.28168673  0.76554742  0.91819608     0.36600
N731        N  0.28812533  0.63022525  0.91608489    -0.43700
N732        N  0.27942822  0.78773400  0.91713839    -0.43700
C733        C  0.02687789  0.87217960  0.81991801    -0.00100
C734        C  0.03103918  0.87569806  0.84875699    -0.11900
C735        C  0.50515050  0.86300301  0.86676617     0.02200
C736        C  0.47436113  0.84694198  0.85563726    -0.00200
C737        C  0.47023828  0.84217040  0.82689436    -0.11900
C738        C  0.49614955  0.85500221  0.80909398     0.02100
H739        H  0.05452618  0.88955431  0.85732777     0.15000
H740        H  0.44670130  0.82977578  0.81820190     0.15000
C741        C  0.49058597  0.85046434  0.77956194     0.36700
C742        C  0.01058574  0.86875329  0.89599757     0.36600
N743        N  0.48621613  0.84685287  0.75588710    -0.43700
N744        N  0.01493547  0.87304222  0.91962649    -0.43700
C745        C  0.13317953  0.50586236  0.82107445    -0.00100
C746        C  0.16378052  0.51976761  0.83188110    -0.11900
C747        C  0.17374943  0.54196468  0.85332404     0.02200
C748        C  0.15267314  0.55041441  0.86481988    -0.00200
C749        C  0.12253194  0.53769754  0.85296943    -0.11900
C750        C  0.11374409  0.01718654  0.82939008     0.02100
H751        H  0.17977696  0.51267857  0.82395550     0.15000
H752        H  0.10603566  0.54372427  0.86160395     0.15000
C753        C  0.08201100  0.00368283  0.81902266     0.36700
C754        C  0.20572249  0.55532701  0.86313237     0.36600
N755        N  0.05651852  0.99280750  0.81082495    -0.43700
N756        N  0.23139066  0.56596295  0.87080088    -0.43700
C757        C  0.34522996  0.89703720  0.81241528    -0.00100
C758        C  0.37208245  0.91621561  0.82864749    -0.11900
C759        C  0.38194679  0.90335578  0.84974996     0.02200
C760        C  0.36468234  0.87079741  0.85499594    -0.00200
C761        C  0.33707962  0.85203457  0.83984346    -0.11900
C762        C  0.32719972  0.86463488  0.81885881     0.02100
H763        H  0.38625194  0.94099178  0.82401400     0.15000
H764        H  0.32356592  0.82702627  0.84386376     0.15000
C765        C  0.29906418  0.84309287  0.80372481     0.36700
C766        C  0.41118212  0.92355619  0.86398860     0.36600
N767        N  0.27661491  0.82568126  0.79158700    -0.43700
N768        N  0.43473348  0.93970358  0.87527152    -0.43700
C769        C  0.24361907  0.92620692  0.75500397    -0.00100
C770        C  0.24420694  0.95486175  0.75677358    -0.11900
C771        C  0.21641704  0.95588857  0.75893724     0.02200
C772        C  0.18701365  0.92766279  0.76017329    -0.00200
C773        C  0.18654969  0.89896995  0.75943477    -0.11900
C774        C  0.21435281  0.89798452  0.75658104     0.02100
H775        H  0.26650791  0.97671011  0.75562015     0.15000
H776        H  0.16427893  0.87711386  0.76064980     0.15000
C777        C  0.21209119  0.86768204  0.75589758     0.36700
C778        C  0.21910836  0.98637472  0.75988768     0.36600
N779        N  0.21007719  0.84330133  0.75538759    -0.43700
N780        N  0.21914029  0.51050597  0.76076637    -0.43700
C781        C  0.37858946  0.85187885  0.65433599    -0.00100
C782        C  0.37468038  0.84522995  0.68284564    -0.11900
C783        C  0.36150043  0.85854038  0.69992230     0.02200
C784        C  0.35121320  0.87804018  0.68830588    -0.00200
C785        C  0.35303469  0.88285563  0.65959553    -0.11900
C786        C  0.36696778  0.87029753  0.64262141     0.02100
H787        H  0.38334243  0.83096319  0.69199561     0.15000
H788        H  0.34512519  0.89782912  0.65063136     0.15000
C789        C  0.36950784  0.87700690  0.61326397     0.36700
C790        C  0.35899808  0.85232726  0.72938951     0.36600
N791        N  0.37175080  0.88236161  0.58973779    -0.43700
N792        N  0.35675047  0.84762097  0.75303247    -0.43700
C793        C  0.01433245  0.87437923  0.64959437    -0.00100
C794        C  0.02802417  0.90650201  0.65559675    -0.11900
C795        C  0.05062600  0.92055229  0.67692924     0.02200
C796        C  0.05983310  0.90218063  0.69263346    -0.00200
C797        C  0.04820456  0.87084298  0.68450381    -0.11900
C798        C  0.02578895  0.85696591  0.66334985     0.02100
H799        H  0.52018797  0.91995218  0.64467478     0.15000
H800        H  0.05554147  0.85643525  0.69562710     0.15000
C801        C  0.01415148  0.82442470  0.65643684     0.36700
C802        C  0.06269406  0.95329974  0.68306205     0.36600
N803        N  0.00466441  0.79840504  0.65062396    -0.43700
N804        N  0.07240709  0.97958893  0.68791155    -0.43700
C805        C  0.40508903  0.55684319  0.65162128    -0.00100
C806        C  0.37422213  0.54720346  0.66002715    -0.11900
C807        C  0.35967041  0.52523946  0.68127970     0.02200
C808        C  0.37591706  0.51229345  0.69471774    -0.00200
C809        C  0.40754382  0.52367709  0.68809669    -0.11900
C810        C  0.42221886  0.54572174  0.66669709     0.02100
H811        H  0.36088399  0.55600190  0.64931443     0.15000
H812        H  0.42020981  0.51389108  0.69843532     0.15000
C813        C  0.45415457  0.55495636  0.65972822     0.36700
C814        C  0.32809678  0.01620723  0.68833819     0.36600
N815        N  0.47977667  0.56231763  0.65420927    -0.43700
N816        N  0.30272660  0.00882274  0.69483267    -0.43700
C817        C  0.01096032  0.63389347  0.52385647    -0.00100
C818        C  0.02375528  0.66336205  0.51117131    -0.11900
C819        C  0.04574525  0.67227557  0.48967292     0.02200
C820        C  0.05502043  0.65111274  0.47977914    -0.00200
C821        C  0.04321213  0.62209287  0.49339081    -0.11900
C822        C  0.02138142  0.61335673  0.51515588     0.02100
H823        H  0.01607819  0.67940100  0.51780834     0.15000
H824        H  0.04983759  0.60546326  0.48613238     0.15000
C825        C  0.00804350  0.58215816  0.52650105     0.36700
C826        C  0.05813851  0.70334011  0.47824381     0.36600
N827        N  0.99725963  0.55703670  0.53537040    -0.43700
N828        N  0.06797350  0.72834932  0.46936965    -0.43700
C829        C  0.43090929  0.68461869  0.58835337    -0.00100
C830        C  0.40394423  0.68335827  0.59916724    -0.11900
C831        C  0.40250271  0.71083217  0.60301561     0.02200
C832        C  0.42828897  0.74040632  0.59538396    -0.00200
C833        C  0.45509749  0.74139105  0.58425367    -0.11900
C834        C  0.45666006  0.71399032  0.58089477     0.02100
H835        H  0.38400063  0.66080352  0.60485796     0.15000
H836        H  0.47509054  0.76372500  0.57820154     0.15000
C837        C  0.48444318  0.71643529  0.56859640     0.36700
C838        C  0.37399707  0.70770563  0.61428251     0.36600
N839        N  0.00630384  0.71816378  0.55798392    -0.43700
N840        N  0.35108648  0.70506147  0.62331742    -0.43700
C841        C  0.35284482  0.97615619  0.31558894    -0.00100
C842        C  0.32877017  0.97226959  0.33341457    -0.11900
C843        C  0.32040349  0.95263919  0.35652147     0.02200
C844        C  0.33671367  0.93652609  0.36257214    -0.00200
C845        C  0.35891980  0.93826467  0.34333919    -0.11900
C846        C  0.36684129  0.95762454  0.31982070     0.02100
H847        H  0.31974322  0.49000891  0.33426372     0.15000
H848        H  0.37105774  0.92545002  0.34720526     0.15000
C849        C  0.39071105  0.95947401  0.30142946     0.36700
C850        C  0.29583039  0.95078417  0.37405679     0.36600
N851        N  0.40979467  0.96092788  0.28661220    -0.43700
N852        N  0.27614095  0.94939139  0.38802494    -0.43700
C853        C  0.38160230  0.52292765  0.52771628    -0.00100
C854        C  0.39153137  0.50083843  0.52929163    -0.11900
C855        C  0.38356710  0.97777374  0.50707532     0.02200
C856        C  0.35757791  0.97047620  0.48985903    -0.00200
C857        C  0.34454575  0.99005057  0.49041070    -0.11900
C858        C  0.35695604  0.51717214  0.50908876     0.02100
H859        H  0.41018689  0.50453327  0.54352996     0.15000
H860        H  0.32478073  0.98477047  0.47697114     0.15000
C861        C  0.34627461  0.53930993  0.50566688     0.36700
C862        C  0.39801618  0.95859770  0.50775500     0.36600
N863        N  0.33789549  0.55719094  0.50274923    -0.43700
N864        N  0.40986377  0.94350455  0.50835933    -0.43700
C865        C  0.39251903  0.83733481  0.53286892    -0.00100
C866        C  0.41141462  0.85588759  0.51081411    -0.11900
C867        C  0.39880611  0.86527685  0.48906195     0.02200
C868        C  0.36658568  0.85606106  0.48917992    -0.00200
C869        C  0.34753976  0.83611243  0.51036298    -0.11900
C870        C  0.35998396  0.82693521  0.53205240     0.02100
H871        H  0.43636900  0.86400491  0.51103679     0.15000
H872        H  0.32270453  0.82858243  0.51068994     0.15000
C873        C  0.33889686  0.80902805  0.55423994     0.36700
C874        C  0.41987568  0.88586779  0.46802974     0.36600
N875        N  0.32179982  0.79498614  0.57199696    -0.43700
N876        N  0.43699850  0.90245002  0.45131289    -0.43700
C877        C  0.24054671  0.81006586  0.42631608    -0.00100
C878        C  0.21293070  0.81022547  0.41953054    -0.11900
C879        C  0.18448072  0.78202581  0.41494941     0.02200
C880        C  0.18325214  0.75287635  0.41762983    -0.00200
C881        C  0.21088770  0.75290241  0.42487532    -0.11900
C882        C  0.23931486  0.78100893  0.42902580     0.02100
H883        H  0.21366064  0.83245741  0.41750474     0.15000
H884        H  0.21038903  0.73080477  0.42715173     0.15000
C885        C  0.26665976  0.77934441  0.43712940     0.36700
C886        C  0.15680668  0.78374444  0.40847101     0.36600
N887        N  0.28859696  0.77811957  0.44371177    -0.43700
N888        N  0.13460213  0.78513639  0.40338085    -0.43700
In889      In  0.82279973  0.39233704  0.44079274     1.36900
C890        C  0.84214148  0.44200230  0.47370258     0.77700
O891        O  0.82569851  0.36804420  0.47819824    -0.60800
O892        O  0.86131077  0.38072861  0.44778396    -0.51700
C893        C  0.76890109  0.33912629  0.43201279     0.70300
O894        O  0.77021233  0.36172183  0.44555842    -0.46500
C895        C  0.83090383  0.41996072  0.39170889     0.75000
O896        O  0.81321139  0.42283529  0.46961698    -0.58400
O897        O  0.84625016  0.40680771  0.39871268    -0.48500
O898        O  0.86048779  0.43611454  0.46034094    -0.54800
C899        C  0.85055679  0.36842339  0.47126265     0.85200
O900        O  0.79492872  0.34425468  0.42266671    -0.56700
O901        O  0.81164565  0.41816281  0.40968286    -0.60000
In902      In  0.93325740  0.10273723  0.57444362     1.36900
C903        C  0.89974028  0.05247959  0.54246591     0.77700
O904        O  0.96426198  0.13072297  0.53904282    -0.60800
O905        O  0.98037926  0.10707505  0.56507316    -0.51700
C906        C  0.93079697  0.15463934  0.58298146     0.70300
O907        O  0.91040603  0.13185720  0.56870421    -0.46500
C908        C  0.91612181  0.07520955  0.62411051     0.75000
O909        O  0.89284931  0.07386102  0.54435780    -0.58400
O910        O  0.94439972  0.08919210  0.61612335    -0.48500
O911        O  0.92282619  0.05716271  0.55719124    -0.54800
C912        C  0.98493483  0.12338564  0.54350153     0.85200
O913        O  0.95223606  0.15068540  0.59311526    -0.56700
O914        O  0.89749079  0.07699835  0.60726058    -0.60000
In915      In  0.92906487  0.32414964  0.60645194     1.36900
C916        C  0.89643703  0.34146154  0.63864434     0.77700
O917        O  0.95996849  0.33057206  0.64247515    -0.60800
O918        O  0.98003840  0.36417139  0.61020199    -0.51700
C919        C  0.92658982  0.26928073  0.59837301     0.70300
O920        O  0.90739310  0.27203403  0.61372922    -0.46500
C921        C  0.90640771  0.33123144  0.55825531     0.75000
O922        O  0.89345514  0.31453600  0.64038965    -0.58400
O923        O  0.93508236  0.34836116  0.56490923    -0.48500
O924        O  0.91610479  0.35912288  0.62088447    -0.54800
C925        C  0.98380953  0.35492995  0.63364379     0.85200
O926        O  0.94643473  0.29452887  0.58673593    -0.56700
O927        O  0.89063837  0.30952334  0.57529115    -0.60000
In928      In  0.82778106  0.43086496  0.74093542     1.36900
C929        C  0.84261377  0.39668298  0.70850506     0.77700
O930        O  0.83293795  0.46134799  0.70509083    -0.60800
O931        O  0.86969253  0.48000616  0.73512102    -0.51700
C932        C  0.77310335  0.42772436  0.75077513     0.70300
O933        O  0.77500372  0.40623596  0.73830035    -0.46500
C934        C  0.83601262  0.41059286  0.78967005     0.75000
O935        O  0.85999459  0.41393318  0.72784183    -0.58400
O936        O  0.85237922  0.43920567  0.78274238    -0.48500
O937        O  0.81722595  0.39681333  0.70541629    -0.54800
C938        C  0.85920325  0.48402738  0.71242829     0.85200
O939        O  0.79922904  0.45061193  0.75840774    -0.56700
O940        O  0.81496395  0.39381736  0.77231628    -0.60000
In941      In  0.60254716  0.42754403  0.77070798     1.36900
C942        C  0.55327727  0.39142475  0.80252076     0.77700
O943        O  0.60565077  0.47411925  0.78078439    -0.60800
O944        O  0.63055433  0.45863309  0.80585946    -0.51700
C945        C  0.65568561  0.42712969  0.76327178     0.70300
O946        O  0.63163588  0.40444528  0.77424416    -0.46500
C947        C  0.57718081  0.41105993  0.71983972     0.75000
O948        O  0.57934644  0.39279158  0.80570780    -0.58400
O949        O  0.58818941  0.43862046  0.72931433    -0.48500
O950        O  0.55237458  0.40760826  0.78280205    -0.54800
C951        C  0.62304997  0.47913934  0.80180228     0.85200
O952        O  0.65181869  0.44925917  0.75502381    -0.56700
O953        O  0.58108851  0.39305743  0.73584576    -0.60000
In954      In  0.89526273  0.32399285  0.90499661     1.36900
C955        C  0.94580897  0.33952173  0.87443327     0.77700
O956        O  0.86968351  0.32885534  0.86915926    -0.60800
O957        O  0.88617127  0.36476716  0.89950634    -0.51700
C958        C  0.84385361  0.26835937  0.91358405     0.70300
O959        O  0.86278739  0.27324508  0.89408584    -0.46500
C960        C  0.92440463  0.33255115  0.95343992     0.75000
O961        O  0.92123027  0.31286099  0.87270512    -0.58400
O962        O  0.91154854  0.34827487  0.94661626    -0.48500
O963        O  0.94433892  0.35789794  0.89164488    -0.54800
C964        C  0.87234034  0.35451098  0.87646228     0.85200
O965        O  0.85158012  0.29176135  0.92913844    -0.56700
O966        O  0.92062280  0.31186037  0.93597271    -0.60000
In967      In  0.57082733  0.16892154  0.10308117     1.36900
C968        C  0.60909163  0.15567044  0.13141123     0.77700
O969        O  0.54400405  0.16137051  0.14189983    -0.60800
O970        O  0.52088749  0.12801432  0.10981680    -0.51700
C971        C  0.57153506  0.22291220  0.09604375     0.70300
O972        O  0.59088185  0.22040260  0.11150254    -0.46500
C973        C  0.58893026  0.16175729  0.05322405     0.75000
O974        O  0.60824357  0.18050137  0.13538689    -0.58400
O975        O  0.56143382  0.14327315  0.06211796    -0.48500
O976        O  0.59095674  0.13809340  0.11258559    -0.54800
C977        C  0.51953386  0.13688305  0.13414289     0.85200
O978        O  0.55231714  0.19787722  0.08360829    -0.56700
O979        O  0.60561640  0.18443860  0.06927776    -0.60000
In980      In  0.67539111  0.06649673  0.23554493     1.36900
C981        C  0.66313490  0.10245447  0.20283993     0.77700
O982        O  0.66796019  0.03550173  0.19935464    -0.60800
O983        O  0.63171071  0.01810686  0.22935218    -0.51700
C984        C  0.72855996  0.06552207  0.24362082     0.70300
O985        O  0.72814769  0.08860287  0.23270705    -0.46500
C986        C  0.66598561  0.08526710  0.28496741     0.75000
O987        O  0.68730666  0.10022212  0.19950418    -0.58400
O988        O  0.64932654  0.05741133  0.27610189    -0.48500
O989        O  0.64599252  0.08668588  0.22271185    -0.54800
C990        C  0.64144340  0.01344074  0.20661742     0.85200
O991        O  0.70199642  0.04394894  0.25165277    -0.56700
O992        O  0.68863977  0.10262839  0.26924722    -0.60000
In993      In  0.89334207  0.05526985  0.26675397     1.36900
C994        C  0.94033987  0.08334791  0.30312713     0.77700
O995        O  0.86391138  0.02680050  0.30169829    -0.60800
O996        O  0.88045089  0.00483326  0.27394506    -0.51700
C997        C  0.84300323  0.06006584  0.25603170     0.70300
O998        O  0.86563501  0.07961332  0.27096253    -0.46500
C999        C  0.92619151  0.07598459  0.21982683     0.75000
O1000       O  0.92202796  0.09367927  0.29801728    -0.58400
O1001       O  0.91072306  0.04701772  0.22564900    -0.48500
O1002       O  0.93465070  0.05935699  0.28931961    -0.54800
C1003       C  0.86562543  0.00277809  0.29602112     0.85200
O1004       O  0.84650741  0.03836888  0.24603602    -0.56700
O1005       O  0.92361331  0.09328855  0.23755020    -0.60000
In1006     In  0.60267512  0.16444988  0.40499226     1.36900
C1007       C  0.55063773  0.14210362  0.37437086     0.77700
O1008       O  0.62783345  0.16352821  0.36683973    -0.60800
O1009       O  0.61740708  0.12826801  0.39710226    -0.51700
C1010       C  0.65364541  0.22029881  0.41367447     0.70300
O1011       O  0.63054260  0.21683412  0.39931356    -0.46500
C1012       C  0.57455150  0.15530953  0.45442481     0.75000
O1013       O  0.57048727  0.17120028  0.37576800    -0.58400
O1014       O  0.58667162  0.13928895  0.44652079    -0.48500
O1015       O  0.55784879  0.12519013  0.38853978    -0.54800
C1016       C  0.62907762  0.13947695  0.37354295     0.85200
O1017       O  0.65035224  0.19509496  0.42358471    -0.56700
O1018       O  0.57814572  0.17633710  0.43752478    -0.60000
In1019     In  0.56533614  0.38984064  0.07411989     1.36900
C1020       C  0.59896554  0.44139553  0.04396628     0.77700
O1021       O  0.53664501  0.36427573  0.03742258    -0.60800
O1022       O  0.51571647  0.38035476  0.06662091    -0.51700
C1023       C  0.56809683  0.33783827  0.08169585     0.70300
O1024       O  0.58281001  0.35725825  0.06257464    -0.46500
C1025       C  0.58509715  0.41875457  0.12283847     0.75000
O1026       O  0.60711920  0.42106215  0.04713851    -0.58400
O1027       O  0.55627957  0.40469905  0.11599955    -0.48500
O1028       O  0.57378589  0.43484426  0.05606697    -0.54800
C1029       C  0.51339659  0.36707696  0.04352814     0.85200
O1030       O  0.55240072  0.34529269  0.09734026    -0.56700
O1031       O  0.60263783  0.41637156  0.10525165    -0.60000
In1032     In  0.67165838  0.09962095  0.93826121     1.36900
C1033       C  0.65380126  0.05101708  0.97185387     0.77700
O1034       O  0.66860753  0.12676444  0.97380561    -0.60800
O1035       O  0.63246383  0.11071920  0.94334398    -0.51700
C1036       C  0.72734874  0.15116778  0.93080009     0.70300
O1037       O  0.72270327  0.13098221  0.94911740    -0.46500
C1038       C  0.66046695  0.06970341  0.88966115     0.75000
O1039       O  0.68236179  0.06884253  0.96569857    -0.58400
O1040       O  0.64619434  0.08378994  0.89696742    -0.48500
O1041       O  0.63502124  0.05764956  0.96019481    -0.54800
C1042       C  0.64315634  0.12474664  0.96625771     0.85200
O1043       O  0.70357324  0.14451680  0.91600659    -0.56700
O1044       O  0.68072609  0.07183892  0.90692077    -0.60000
C1045       C  0.61681560  0.47078711  0.02762703    -0.00100
C1046       C  0.60798449  0.49364279  0.03015727    -0.11900
C1047       C  0.62004503  0.02051011  0.01178735     0.02200
C1048       C  0.64249851  0.02478394  0.99167869    -0.00200
C1049       C  0.65222432  0.00264099  0.98947671    -0.11900
C1050       C  0.64159117  0.47656616  0.00935668     0.02100
H1051       H  0.58971869  0.49019595  0.04461115     0.15000
H1052       H  0.66964159  0.00595865  0.97412003     0.15000
C1053       C  0.65225081  0.45440242  0.00614310     0.36700
C1054       C  0.61147581  0.04411263  0.01660299     0.36600
N1055       N  0.66071756  0.43654638  0.00369903    -0.43700
N1056       N  0.60506264  0.06332186  0.02046545    -0.43700
C1057       C  0.96679040  0.09809981  0.32325619    -0.00100
C1058       C  0.98223472  0.13063121  0.32796481    -0.11900
C1059       C  0.50897696  0.14565160  0.34531954     0.02200
C1060       C  0.52139811  0.12802582  0.35729232    -0.00200
C1061       C  0.50533328  0.09539374  0.35299045    -0.11900
C1062       C  0.97787322  0.08026924  0.33696868     0.02100
H1063       H  0.97361645  0.14449771  0.31792580     0.15000
H1064       H  0.51396915  0.08127513  0.36249931     0.15000
C1065       C  0.96163059  0.04643377  0.33507799     0.36700
C1066       C  0.52296220  0.17888682  0.35031425     0.37800
N1067       N  0.94862863  0.01932449  0.33379355    -0.43700
N1068       N  0.53396249  0.20550979  0.35438936    -0.43700
C1069       C  0.65877453  0.09760145  0.31063256    -0.00100
C1070       C  0.67690459  0.12993938  0.31653523    -0.11900
C1071       C  0.66855613  0.14373534  0.33781519     0.02200
C1072       C  0.64185087  0.12509971  0.35428698    -0.00200
C1073       C  0.62492057  0.09254333  0.34974718    -0.11900
C1074       C  0.63280717  0.07876285  0.32800776     0.02100
H1075       H  0.69708323  0.14489047  0.30375343     0.15000
H1076       H  0.60424732  0.07800251  0.36216944     0.15000
C1077       C  0.61282643  0.04551110  0.32325260     0.36700
C1078       C  0.68765095  0.17720623  0.34218912     0.36600
N1079       N  0.59672750  0.01888723  0.31924859    -0.43700
N1080       N  0.70292069  0.20401500  0.34573267    -0.43700
C1081       C  0.81417403  0.06184885  0.25141651    -0.00100
C1082       C  0.78491511  0.03399534  0.25067357    -0.11900
C1083       C  0.75687003  0.03462050  0.24834245     0.02200
C1084       C  0.75772944  0.06367908  0.24629211    -0.00200
C1085       C  0.78717380  0.09149103  0.24601992    -0.11900
C1086       C  0.81518038  0.09079757  0.24871650     0.02100
H1087       H  0.78389771  0.01159448  0.25252108     0.15000
H1088       H  0.78835579  0.11394121  0.24393855     0.15000
C1089       C  0.84478110  0.11998842  0.24768321     0.36700
C1090       C  0.72766761  0.00498302  0.24747201     0.36600
N1091       N  0.86871130  0.14315872  0.24675817    -0.43700
N1092       N  0.70456093  0.48160304  0.24478891    -0.43700
C1093       C  0.59806173  0.43842033  0.14833269    -0.00100
C1094       C  0.57924447  0.44688380  0.16371103    -0.11900
C1095       C  0.59239982  0.47015153  0.18450295     0.02200
C1096       C  0.62502794  0.48562824  0.18988574    -0.00200
C1097       C  0.64321475  0.47547704  0.17603844    -0.11900
C1098       C  0.63013669  0.45191942  0.15584185     0.02100
H1099       H  0.55453416  0.43649269  0.15857845     0.15000
H1100       H  0.66664254  0.98381141  0.18143476     0.15000
C1101       C  0.65065672  0.44273589  0.14294530     0.36700
C1102       C  0.57233896  0.47914974  0.19846436     0.36600
N1103       N  0.66489857  0.93193927  0.13371846    -0.43700
N1104       N  0.55599105  0.48611651  0.20955225    -0.43700
C1105       C  0.62739302  0.13721503  0.98396448    -0.00100
C1106       C  0.64643489  0.16446053  0.99940874    -0.11900
C1107       C  0.63399160  0.17430828  0.02051076     0.02200
C1108       C  0.60166654  0.15611663  0.02723415    -0.00200
C1109       C  0.58215880  0.13002548  0.01041647    -0.11900
C1110       C  0.59466973  0.12068127  0.98872863     0.02100
H1111       H  0.67154452  0.17764593  0.99556579     0.15000
H1112       H  0.55728191  0.11604454  0.01494321     0.15000
C1113       C  0.57377658  0.09277767  0.97314307     0.36700
C1114       C  0.65552522  0.20241338  0.03562264     0.36600
N1115       N  0.55694566  0.07042042  0.96065595    -0.43700
N1116       N  0.67272903  0.22493183  0.04774713    -0.43700
C1117       C  0.56886579  0.30843319  0.08520946    -0.00100
C1118       C  0.57801031  0.30201360  0.11082022    -0.11900
C1119       C  0.57970224  0.27469906  0.11464160     0.02200
C1120       C  0.57114382  0.25266728  0.09278021    -0.00200
C1121       C  0.56130480  0.25886523  0.06736676    -0.11900
C1122       C  0.56054541  0.28661983  0.06332571     0.02100
H1123       H  0.58432081  0.31864031  0.12775797     0.15000
H1124       H  0.55451885  0.24212788  0.05046223     0.15000
C1125       C  0.55021820  0.29179357  0.03680226     0.36700
C1126       C  0.58945649  0.26947792  0.14142734     0.36600
N1127       N  0.04262823  0.29664204  0.01561566    -0.43700
N1128       N  0.59732808  0.26524220  0.16284973    -0.43700
C1129       C  0.62784466  0.14658144  0.14884356    -0.00100
C1130       C  0.62681072  0.14962536  0.17764786    -0.11900
C1131       C  0.63962698  0.13674614  0.19557315     0.02200
C1132       C  0.65439718  0.12094475  0.18467595    -0.00200
C1133       C  0.65756104  0.11994683  0.15582203    -0.11900
C1134       C  0.64407744  0.13228631  0.13782770     0.02100
H1135       H  0.61453932  0.16074094  0.18623589     0.15000
H1136       H  0.66908800  0.10805397  0.14730254     0.15000
C1137       C  0.64713817  0.12990489  0.10826512     0.36700
C1138       C  0.63714700  0.13994337  0.22510718     0.36600
N1139       N  0.64982346  0.12800522  0.08461111    -0.43700
N1140       N  0.63523086  0.14260005  0.24876161    -0.43700
C1141       C  0.99231843  0.12057168  0.15288730    -0.00100
C1142       C  0.97616341  0.08768757  0.15505139    -0.11900
C1143       C  0.95369004  0.07218149  0.17603572     0.02200
C1144       C  0.94683141  0.08974570  0.19507405    -0.00200
C1145       C  0.96175736  0.12245885  0.19155277    -0.11900
C1146       C  0.48396965  0.13787421  0.17071246     0.02100
H1147       H  0.98221022  0.07423554  0.14126030     0.15000
H1148       H  0.95652223  0.13643498  0.20547214     0.15000
C1149       C  0.49845110  0.17157164  0.16834257     0.36700
C1150       C  0.93906305  0.03851895  0.17807372     0.36600
N1151       N  0.51012515  0.19853875  0.16632174    -0.43700
N1152       N  0.92738266  0.01151733  0.17966765    -0.43700
C1153       C  0.94375311  0.33872678  0.97908646    -0.00100
C1154       C  0.95035505  0.36459483  0.99608207    -0.11900
C1155       C  0.97170845  0.37348872  0.01839468     0.02200
C1156       C  0.98645408  0.35597495  0.02433129    -0.00200
C1157       C  0.97880686  0.32945096  0.00820878    -0.11900
C1158       C  0.95806449  0.32083492  0.98574862     0.02100
H1159       H  0.94000385  0.37885962  0.99115624     0.15000
H1160       H  0.99025254  0.31601528  0.01248546     0.15000
C1161       C  0.95361040  0.29448855  0.96921115     0.36700
C1162       C  0.48071424  0.40265061  0.03253114     0.36600
N1163       N  0.95049193  0.27355592  0.95594830    -0.43700
N1164       N  0.48782337  0.42588591  0.04405522    -0.43700
C1165       C  0.75800617  0.18045910  0.92682818    -0.00100
C1166       C  0.76573876  0.19372784  0.90020816    -0.11900
C1167       C  0.79394939  0.22179722  0.89537132     0.02200
C1168       C  0.81463840  0.23781316  0.91762758    -0.00200
C1169       C  0.80693002  0.22473333  0.94429983    -0.11900
C1170       C  0.77923384  0.19599248  0.94897061     0.02100
H1171       H  0.74974205  0.18201818  0.88302596     0.15000
H1172       H  0.82278966  0.23683544  0.96147447     0.15000
C1173       C  0.77292694  0.18342083  0.97676656     0.36700
C1174       C  0.80048843  0.23423756  0.86753282     0.36600
N1175       N  0.76795568  0.17321366  0.99899834    -0.43700
N1176       N  0.80563734  0.24408608  0.84517911    -0.43700
C1177       C  0.52618937  0.37380372  0.82104433    -0.00100
C1178       C  0.53054562  0.37941796  0.84968128    -0.11900
C1179       C  0.00458684  0.36744658  0.86777370     0.02200
C1180       C  0.97378665  0.34917531  0.85704026    -0.00200
C1181       C  0.96953611  0.34214301  0.82860804    -0.11900
C1182       C  0.99526854  0.35469832  0.81060376     0.02100
H1183       H  0.55403988  0.39435714  0.85789737     0.15000
H1184       H  0.94597041  0.32813960  0.82023544     0.15000
C1185       C  0.98960977  0.34802105  0.78129490     0.36700
C1186       C  0.51039587  0.37556614  0.89668814     0.36600
N1187       N  0.98513376  0.34268873  0.75780109    -0.43700
N1188       N  0.51505677  0.38192224  0.92001087    -0.43700
C1189       C  0.63368986  0.00613260  0.82010821    -0.00100
C1190       C  0.66422643  0.02000429  0.83102980    -0.11900
C1191       C  0.67411607  0.04220718  0.85243820     0.02200
C1192       C  0.65301012  0.05065839  0.86380729    -0.00200
C1193       C  0.62297751  0.03809736  0.85174266    -0.11900
C1194       C  0.61302002  0.51565939  0.83136117     0.02100
H1195       H  0.68024760  0.01289491  0.82320584     0.15000
H1196       H  0.60650832  0.04426322  0.86019393     0.15000
C1197       C  0.58076306  0.50078331  0.82212520     0.36700
C1198       C  0.70611615  0.05573939  0.86217015     0.36600
N1199       N  0.55481206  0.48860232  0.81492614    -0.43700
N1200       N  0.73187442  0.06647152  0.86960343    -0.43700
C1201       C  0.84196884  0.39695074  0.81502316    -0.00100
C1202       C  0.86690786  0.41632214  0.83308473    -0.11900
C1203       C  0.87622593  0.40340076  0.85460600     0.02200
C1204       C  0.86036803  0.37055734  0.85838868    -0.00200
C1205       C  0.83434656  0.35152870  0.84151324    -0.11900
C1206       C  0.82506720  0.36417519  0.82009167     0.02100
H1207       H  0.88010902  0.44138913  0.82961097     0.15000
H1208       H  0.82189769  0.32631625  0.84432993     0.15000
C1209       C  0.79914773  0.34227301  0.80283349     0.36700
C1210       C  0.90366366  0.42409991  0.87085882     0.36600
N1211       N  0.77853401  0.32460683  0.78895664    -0.43700
N1212       N  0.92576762  0.44071796  0.88377292    -0.43700
C1213       C  0.74291293  0.42691294  0.75528314    -0.00100
C1214       C  0.74314317  0.45544058  0.75624114    -0.11900
C1215       C  0.71520002  0.45614474  0.75870087     0.02200
C1216       C  0.68604359  0.42775795  0.76064461    -0.00200
C1217       C  0.68595170  0.39925936  0.76073331    -0.11900
C1218       C  0.71391078  0.39857800  0.75797119     0.02100
H1219       H  0.76526499  0.47738571  0.75449162     0.15000
H1220       H  0.66387411  0.37732038  0.76271723     0.15000
C1221       C  0.71215122  0.36851733  0.75895031     0.36700
C1222       C  0.71743634  0.48643856  0.75970700     0.36600
N1223       N  0.71054291  0.34433404  0.75992074    -0.43700
N1224       N  0.72148955  0.01064534  0.76079929    -0.43700
C1225       C  0.87882480  0.35210360  0.65600748    -0.00100
C1226       C  0.87659977  0.34667506  0.68473650    -0.11900
C1227       C  0.86389325  0.36022930  0.70214559     0.02200
C1228       C  0.85213669  0.37860102  0.69068627    -0.00200
C1229       C  0.85253984  0.38236675  0.66186019    -0.11900
C1230       C  0.86624846  0.36981017  0.64455938     0.02100
H1231       H  0.88617059  0.33312788  0.69373641     0.15000
H1232       H  0.84364073  0.39654782  0.65297114     0.15000
C1233       C  0.86753815  0.37581654  0.61512586     0.36700
C1234       C  0.86333108  0.35530006  0.73174831     0.36600
N1235       N  0.86874558  0.38073606  0.59155291    -0.43700
N1236       N  0.86274133  0.35160745  0.75550384    -0.43700
C1237       C  0.51311890  0.37101392  0.65052569    -0.00100
C1238       C  0.52839684  0.40354704  0.65502290    -0.11900
C1239       C  0.55121646  0.41785491  0.67613619     0.02200
C1240       C  0.55887508  0.39932358  0.69332956    -0.00200
C1241       C  0.54580231  0.36735995  0.68663920    -0.11900
C1242       C  0.52332739  0.35324793  0.66551992     0.02100
H1243       H  0.02102443  0.41750578  0.64319093     0.15000
H1244       H  0.55208731  0.35277372  0.69881069     0.15000
C1245       C  0.51059334  0.32026577  0.65973024     0.36700
C1246       C  0.56548822  0.45125863  0.68025349     0.36600
N1247       N  0.50032757  0.29391962  0.65474414    -0.43700
N1248       N  0.57707330  0.47808938  0.68344911    -0.43700
C1249       C  0.90463217  0.05661805  0.65019856    -0.00100
C1250       C  0.87394754  0.04720780  0.65897461    -0.11900
C1251       C  0.85955422  0.02518666  0.68021822     0.02200
C1252       C  0.87591397  0.01219374  0.69339468    -0.00200
C1253       C  0.90737233  0.02332672  0.68633667    -0.11900
C1254       C  0.92177291  0.04518834  0.66479947     0.02100
H1255       H  0.86060394  0.05614385  0.64848242     0.15000
H1256       H  0.92003425  0.01333299  0.69633519     0.15000
C1257       C  0.95321859  0.05349750  0.65689147     0.36700
C1258       C  0.82800613  0.51592824  0.68899054     0.36600
N1259       N  0.97839121  0.06001246  0.65053300    -0.43700
N1260       N  0.80262940  0.50859344  0.69541763    -0.43700
C1261       C  0.51156946  0.13233768  0.52412758    -0.00100
C1262       C  0.52753547  0.16298757  0.51366268    -0.11900
C1263       C  0.54954180  0.17152044  0.49222965     0.02200
C1264       C  0.55579306  0.14894937  0.48040080    -0.00200
C1265       C  0.54083435  0.11859893  0.49182619    -0.11900
C1266       C  0.51870258  0.11008158  0.51327042     0.02100
H1267       H  0.52224236  0.18024661  0.52188651     0.15000
H1268       H  0.54497224  0.10087378  0.48285495     0.15000
C1269       C  0.50137815  0.07760223  0.52170425     0.36700
C1270       C  0.56505595  0.20363375  0.48275409     0.36600
N1271       N  0.48731516  0.05145514  0.52809713    -0.43700
N1272       N  0.57738176  0.22945112  0.47537959    -0.43700
C1273       C  0.92989873  0.18391085  0.58713169    -0.00100
C1274       C  0.90225083  0.18216929  0.59669870    -0.11900
C1275       C  0.90054466  0.20945313  0.60084313     0.02200
C1276       C  0.92672544  0.23931651  0.59462871    -0.00200
C1277       C  0.95423490  0.24079617  0.58471403    -0.11900
C1278       C  0.95611327  0.21358756  0.58124323     0.02100
H1279       H  0.88199587  0.15938109  0.60126469     0.15000
H1280       H  0.97458642  0.26339034  0.57986311     0.15000
C1281       C  0.98486009  0.21662528  0.57065570     0.36700
C1282       C  0.87141804  0.20586121  0.61095993     0.36600
N1283       N  0.50791067  0.21902694  0.56178436    -0.43700
N1284       N  0.84798508  0.20276399  0.61910418    -0.43700
C1285       C  0.85220854  0.47647887  0.31786134    -0.00100
C1286       C  0.82962218  0.47450787  0.33660256    -0.11900
C1287       C  0.82119918  0.45521602  0.35993017     0.02200
C1288       C  0.83568249  0.43717840  0.36514250    -0.00200
C1289       C  0.85645453  0.43721996  0.34519873    -0.11900
C1290       C  0.86461528  0.45645860  0.32157826     0.02100
H1291       H  0.81682491  0.98515580  0.32947450     0.15000
H1292       H  0.86722059  0.42300920  0.34850508     0.15000
C1293       C  0.88701448  0.45642689  0.30245847     0.36700
C1294       C  0.79878320  0.45594858  0.37866926     0.36600
N1295       N  0.90489681  0.45628327  0.28709020    -0.43700
N1296       N  0.78087318  0.45668200  0.39362656    -0.43700
C1297       C  0.88343599  0.02414803  0.52442232    -0.00100
C1298       C  0.89583948  0.00404558  0.52398581    -0.11900
C1299       C  0.87859956  0.47442512  0.51203773     0.02200
C1300       C  0.85428719  0.46876024  0.49328110    -0.00200
C1301       C  0.84309324  0.48986331  0.49238065    -0.11900
C1302       C  0.85720497  0.01683536  0.50729013     0.02100
H1303       H  0.91590423  0.00905161  0.53690293     0.15000
H1304       H  0.82459309  0.48577771  0.47779903     0.15000
C1305       C  0.84404363  0.03707700  0.50578526     0.36700
C1306       C  0.89093831  0.45347240  0.51420040     0.36600
N1307       N  0.83364026  0.05342878  0.50435007    -0.43700
N1308       N  0.90104964  0.43689560  0.51592045    -0.43700
C1309       C  0.89175281  0.33719192  0.53358318    -0.00100
C1310       C  0.91075851  0.35699522  0.51213624    -0.11900
C1311       C  0.89792900  0.36635439  0.49054161     0.02200
C1312       C  0.86539701  0.35578227  0.49019029    -0.00200
C1313       C  0.84633911  0.33467961  0.51071058    -0.11900
C1314       C  0.85898946  0.32560241  0.53228725     0.02100
H1315       H  0.93590242  0.36611516  0.51275694     0.15000
H1316       H  0.82128767  0.32619640  0.51066625     0.15000
C1317       C  0.83777229  0.30657775  0.55397968     0.36700
C1318       C  0.91896112  0.38837463  0.47024792     0.36600
N1319       N  0.82061164  0.29166006  0.57139434    -0.43700
N1320       N  0.93592362  0.40612473  0.45407852    -0.43700
C1321       C  0.73940642  0.30875791  0.42762990    -0.00100
C1322       C  0.71124171  0.30839650  0.42224089    -0.11900
C1323       C  0.68308579  0.28002659  0.41734777     0.02200
C1324       C  0.68268700  0.25118506  0.41834693    -0.00200
C1325       C  0.71083612  0.25165744  0.42423871    -0.11900
C1326       C  0.73900521  0.27997299  0.42862245     0.02100
H1327       H  0.71130493  0.33037878  0.42151315     0.15000
H1328       H  0.71094228  0.22976701  0.42520240     0.15000
C1329       C  0.76698454  0.27872995  0.43504493     0.36700
C1330       C  0.65484242  0.28118375  0.41226217     0.36600
N1331       N  0.78944364  0.27783789  0.44022378    -0.43700
N1332       N  0.63215501  0.28205355  0.40825267    -0.43700
In1333     In  0.82461300  0.89272962  0.43862529     1.36900
C1334       C  0.84469472  0.94309512  0.47064058     0.77700
O1335       O  0.82745762  0.86891952  0.47642889    -0.60800
O1336       O  0.86286090  0.88068250  0.44604219    -0.51700
C1337       C  0.77012550  0.84004103  0.43045840     0.70300
O1338       O  0.77200792  0.86303640  0.44374883    -0.46500
C1339       C  0.83211765  0.91947858  0.38915517     0.75000
O1340       O  0.81568352  0.92363629  0.46741364    -0.58400
O1341       O  0.84710570  0.90590467  0.39604536    -0.48500
O1342       O  0.86271310  0.93708176  0.45687025    -0.54800
C1343       C  0.85210365  0.86880426  0.46964910     0.85200
O1344       O  0.79589312  0.84447226  0.42106742    -0.56700
O1345       O  0.81371884  0.91874191  0.40752603    -0.60000
In1346     In  0.93347791  0.60296772  0.57566612     1.36900
C1347       C  0.89893233  0.55185330  0.54481326     0.77700
O1348       O  0.96216743  0.62894231  0.53852922    -0.60800
O1349       O  0.98169296  0.60979693  0.56613610    -0.51700
C1350       C  0.93131633  0.65517960  0.58413733     0.70300
O1351       O  0.91031751  0.63199569  0.57068152    -0.46500
C1352       C  0.91675985  0.57544120  0.62548314     0.75000
O1353       O  0.89229941  0.57341479  0.54664658    -0.58400
O1354       O  0.94480434  0.58843645  0.61692670    -0.48500
O1355       O  0.92261453  0.55688738  0.55883576    -0.54800
C1356       C  0.98448020  0.62412711  0.54359927     0.85200
O1357       O  0.95313962  0.65143963  0.59362720    -0.56700
O1358       O  0.89834416  0.57829285  0.60915989    -0.60000
In1359     In  0.93057822  0.82558515  0.60556183     1.36900
C1360       C  0.89720644  0.84210065  0.63732267     0.77700
O1361       O  0.96161023  0.83320918  0.64171055    -0.60800
O1362       O  0.98106543  0.86669023  0.60927290    -0.51700
C1363       C  0.92845195  0.77075769  0.59839640     0.70300
O1364       O  0.90916978  0.77372253  0.61341653    -0.46500
C1365       C  0.90750660  0.83179580  0.55725595     0.75000
O1366       O  0.89473885  0.81541933  0.63930698    -0.58400
O1367       O  0.93633344  0.84869148  0.56349429    -0.48500
O1368       O  0.91688805  0.85996200  0.61966396    -0.54800
C1369       C  0.98506611  0.85787047  0.63283142     0.85200
O1370       O  0.94845578  0.79590090  0.58670486    -0.56700
O1371       O  0.89174397  0.81067517  0.57475776    -0.60000
In1372     In  0.82872416  0.93077593  0.73953256     1.36900
C1373       C  0.84280116  0.89692335  0.70619655     0.77700
O1374       O  0.83260252  0.96154568  0.70431748    -0.60800
O1375       O  0.87042655  0.97980251  0.73326367    -0.51700
C1376       C  0.77408954  0.92699839  0.75069743     0.70300
O1377       O  0.77598016  0.90595457  0.73742109    -0.46500
C1378       C  0.83887138  0.91078418  0.78755372     0.75000
O1379       O  0.86098555  0.91473021  0.72486858    -0.58400
O1380       O  0.85430444  0.93949056  0.78076037    -0.48500
O1381       O  0.81705418  0.89649804  0.70406390    -0.54800
C1382       C  0.85920987  0.98403555  0.71112227     0.85200
O1383       O  0.80020866  0.94961810  0.75870143    -0.56700
O1384       O  0.81783900  0.89358063  0.77035227    -0.60000
In1385     In  0.60360941  0.92750742  0.77024267     1.36900
C1386       C  0.55430067  0.89051891  0.80194049     0.77700
O1387       O  0.60591403  0.97374310  0.78003692    -0.60800
O1388       O  0.63094532  0.95869742  0.80545581    -0.51700
C1389       C  0.65685089  0.92691432  0.76281191     0.70300
O1390       O  0.63237720  0.90385509  0.77283306    -0.46500
C1391       C  0.57831793  0.91262024  0.71929366     0.75000
O1392       O  0.58073852  0.89282198  0.80556127    -0.58400
O1393       O  0.58961595  0.93996514  0.72931780    -0.48500
O1394       O  0.55321122  0.90631268  0.78198768    -0.54800
C1395       C  0.62322696  0.97900486  0.80113649     0.85200
O1396       O  0.65340173  0.94956006  0.75545136    -0.56700
O1397       O  0.58206925  0.89409247  0.73472733    -0.60000
In1398     In  0.89626366  0.82301911  0.90358660     1.36900
C1399       C  0.94631096  0.83715863  0.87279314     0.77700
O1400       O  0.87185813  0.82816973  0.86701740    -0.60800
O1401       O  0.89074248  0.86552783  0.89625932    -0.51700
C1402       C  0.84309463  0.76881536  0.91174104     0.70300
O1403       O  0.86660734  0.77040205  0.89975264    -0.46500
C1404       C  0.92281139  0.83133472  0.95346424     0.75000
O1405       O  0.92028481  0.81221223  0.86905875    -0.58400
O1406       O  0.91131484  0.84782485  0.94523434    -0.48500
O1407       O  0.94643381  0.85433731  0.89212647    -0.54800
C1408       C  0.87627490  0.85478718  0.87352434     0.85200
O1409       O  0.84737065  0.79492871  0.92013940    -0.56700
O1410       O  0.91877051  0.80996502  0.93673532    -0.60000
In1411     In  0.57058568  0.66982210  0.10488615     1.36900
C1412       C  0.60843622  0.65687681  0.13407701     0.77700
O1413       O  0.54281760  0.66264106  0.14313099    -0.60800
O1414       O  0.52102767  0.62839693  0.11147193    -0.51700
C1415       C  0.57167539  0.72381539  0.09640720     0.70300
O1416       O  0.59062997  0.72137408  0.11244838    -0.46500
C1417       C  0.58971761  0.66145539  0.05590922     0.75000
O1418       O  0.60780308  0.68188706  0.13768312    -0.58400
O1419       O  0.56172051  0.64388435  0.06411158    -0.48500
O1420       O  0.59000838  0.63895119  0.11558954    -0.54800
C1421       C  0.51894330  0.63752633  0.13547052     0.85200
O1422       O  0.55255656  0.69862775  0.08410478    -0.56700
O1423       O  0.60642292  0.68402970  0.07205366    -0.60000
In1424     In  0.67606989  0.56751007  0.23598049     1.36900
C1425       C  0.66357039  0.60359916  0.20379041     0.77700
O1426       O  0.66782312  0.53713972  0.19915465    -0.60800
O1427       O  0.63289426  0.51859750  0.23036653    -0.51700
C1428       C  0.72910704  0.56609120  0.24363567     0.70300
O1429       O  0.72880827  0.58931661  0.23292261    -0.46500
C1430       C  0.66686627  0.58668769  0.28527775     0.75000
O1431       O  0.68773473  0.60140914  0.20018816    -0.58400
O1432       O  0.65001596  0.55885838  0.27641058    -0.48500
O1433       O  0.64644771  0.58761046  0.22359021    -0.54800
C1434       C  0.64200399  0.51445472  0.20707438     0.85200
O1435       O  0.70252536  0.54459576  0.25169542    -0.56700
O1436       O  0.68973771  0.60383111  0.26967163    -0.60000
In1437     In  0.89304494  0.55456451  0.26748229     1.36900
C1438       C  0.94078653  0.58281002  0.30298170     0.77700
O1439       O  0.86412663  0.52736896  0.30303202    -0.60800
O1440       O  0.87960547  0.50408759  0.27571452    -0.51700
C1441       C  0.84305187  0.55977111  0.25639434     0.70300
O1442       O  0.86568296  0.57926922  0.27136673    -0.46500
C1443       C  0.92544316  0.57520384  0.22049523     0.75000
O1444       O  0.92206033  0.59281394  0.29860242    -0.58400
O1445       O  0.91026867  0.54621801  0.22637299    -0.48500
O1446       O  0.93513507  0.55903165  0.28883874    -0.54800
C1447       C  0.86530718  0.50294281  0.29789891     0.85200
O1448       O  0.84634658  0.53783649  0.24663084    -0.56700
O1449       O  0.92273712  0.59246244  0.23818658    -0.60000
In1450     In  0.60306377  0.66591369  0.40488878     1.36900
C1451       C  0.55124684  0.64246713  0.37405692     0.77700
O1452       O  0.62863048  0.66522901  0.36684821    -0.60800
O1453       O  0.61839689  0.63014750  0.39725715    -0.51700
C1454       C  0.65387401  0.72186687  0.41343170     0.70300
O1455       O  0.63105210  0.71823861  0.39853192    -0.46500
C1456       C  0.57417056  0.65708136  0.45398696     0.75000
O1457       O  0.57061297  0.67170289  0.37538632    -0.58400
O1458       O  0.58688490  0.64139081  0.44670089    -0.48500
O1459       O  0.55876661  0.62592700  0.38843608    -0.54800
C1460       C  0.63005334  0.64130614  0.37367107     0.85200
O1461       O  0.65023119  0.69682689  0.42407371    -0.56700
O1462       O  0.57758608  0.67767074  0.43663418    -0.60000
In1463     In  0.56473642  0.89016782  0.07281023     1.36900
C1464       C  0.59742812  0.94133081  0.04202142     0.77700
O1465       O  0.53444239  0.86289011  0.03730029    -0.60800
O1466       O  0.51534460  0.88144760  0.06592584    -0.51700
C1467       C  0.56858371  0.83874501  0.08028603     0.70300
O1468       O  0.58238790  0.85781169  0.06069995    -0.46500
C1469       C  0.58451029  0.91889587  0.12158265     0.75000
O1470       O  0.60582278  0.92118073  0.04515825    -0.58400
O1471       O  0.55561617  0.90411199  0.11502735    -0.48500
O1472       O  0.57253889  0.93488076  0.05457775    -0.54800
C1473       C  0.51189532  0.86684039  0.04339848     0.85200
O1474       O  0.55328296  0.84627933  0.09634677    -0.56700
O1475       O  0.60229794  0.91756662  0.10359100    -0.60000
In1476     In  0.67221861  0.59897138  0.93984089     1.36900
C1477       C  0.65618200  0.55152568  0.97454610     0.77700
O1478       O  0.66904967  0.62431353  0.97672986    -0.60800
O1479       O  0.63295137  0.60960246  0.94620193    -0.51700
C1480       C  0.72674638  0.65111748  0.92970434     0.70300
O1481       O  0.72521594  0.62722520  0.94084847    -0.46500
C1482       C  0.66039853  0.56944110  0.89088628     0.75000
O1483       O  0.68465459  0.57205117  0.97064552    -0.58400
O1484       O  0.64531580  0.58236808  0.89907615    -0.48500
O1485       O  0.63675217  0.55503848  0.96028647    -0.54800
C1486       C  0.64367755  0.62277400  0.96945791     0.85200
O1487       O  0.70041413  0.64815255  0.92390320    -0.56700
O1488       O  0.68158727  0.57256439  0.90743015    -0.60000
C1489       C  0.61471152  0.97037836  0.02519397    -0.00100
C1490       C  0.60628406  0.99349411  0.02811221    -0.11900
C1491       C  0.62215140  0.52091699  0.01418076     0.02200
C1492       C  0.64540745  0.52573675  0.99478132    -0.00200
C1493       C  0.65564414  0.50395800  0.99307162    -0.11900
C1494       C  0.63852762  0.97550037  0.00604626     0.02100
H1495       H  0.58872579  0.99048610  0.04319704     0.15000
H1496       H  0.67365844  0.50768542  0.97821798     0.15000
C1497       C  0.64853303  0.95289274  0.00226908     0.36700
C1498       C  0.61300148  0.54415336  0.01849599     0.36600
N1499       N  0.65641160  0.93462610  0.99941605    -0.43700
N1500       N  0.60610266  0.56304808  0.02209213    -0.43700
C1501       C  0.96756239  0.59771225  0.32276087    -0.00100
C1502       C  0.98164407  0.62991139  0.32867123    -0.11900
C1503       C  0.50802926  0.64466237  0.34662550     0.02200
C1504       C  0.52224872  0.62791291  0.35674584    -0.00200
C1505       C  0.50818365  0.59578730  0.35049729    -0.11900
C1506       C  0.97992016  0.58037911  0.33534097     0.02100
H1507       H  0.97193979  0.64332837  0.31964640     0.15000
H1508       H  0.51826933  0.58232532  0.35864512     0.15000
C1509       C  0.96488074  0.54668623  0.33243511     0.36700
C1510       C  0.51947001  0.67689710  0.35436551     0.37800
N1511       N  0.95272995  0.51967946  0.33032635    -0.43700
N1512       N  0.52836370  0.70263548  0.36079737    -0.43700
C1513       C  0.65959337  0.59917090  0.31082581    -0.00100
C1514       C  0.67819520  0.63138852  0.31709958    -0.11900
C1515       C  0.66990187  0.64527912  0.33837465     0.02200
C1516       C  0.64277593  0.62683933  0.35444800    -0.00200
C1517       C  0.62527861  0.59439969  0.34945284    -0.11900
C1518       C  0.63309100  0.58056038  0.32772843     0.02100
H1519       H  0.69874354  0.64617088  0.30464715     0.15000
H1520       H  0.60422779  0.58003778  0.36149911     0.15000
C1521       C  0.61243096  0.54752523  0.32243438     0.36700
C1522       C  0.68954396  0.67860544  0.34322215     0.36600
N1523       N  0.59578999  0.52109022  0.31796338    -0.43700
N1524       N  0.70531617  0.70529499  0.34713522    -0.43700
C1525       C  0.81440920  0.56183571  0.25151133    -0.00100
C1526       C  0.78510158  0.53407852  0.25020058    -0.11900
C1527       C  0.75716586  0.53488384  0.24770637     0.02200
C1528       C  0.75817683  0.56404256  0.24614501    -0.00200
C1529       C  0.78768154  0.59177843  0.24632545    -0.11900
C1530       C  0.81558714  0.59090421  0.24911617     0.02100
H1531       H  0.78394316  0.51158827  0.25173019     0.15000
H1532       H  0.78898336  0.61431105  0.24456182     0.15000
C1533       C  0.84524193  0.62006635  0.24849487     0.36700
C1534       C  0.72793522  0.50532979  0.24611430     0.36600
N1535       N  0.86916767  0.64326506  0.24786919    -0.43700
N1536       N  0.70427908  0.98122407  0.24675345    -0.43700
C1537       C  0.59719988  0.93813803  0.14728931    -0.00100
C1538       C  0.57870830  0.94757472  0.16191729    -0.11900
C1539       C  0.59191258  0.97069479  0.18280302     0.02200
C1540       C  0.62421907  0.98480401  0.18924911    -0.00200
C1541       C  0.64196286  0.97362046  0.17615384    -0.11900
C1542       C  0.62883323  0.95037021  0.15567730     0.02100
H1543       H  0.55434748  0.93824274  0.15597614     0.15000
H1544       H  0.66816434  0.48664869  0.18058003     0.15000
C1545       C  0.64879556  0.94010490  0.14340719     0.36700
C1546       C  0.57243709  0.98123275  0.19552135     0.36600
N1547       N  0.66722127  0.43543881  0.13277989    -0.43700
N1548       N  0.55659228  0.98953005  0.20552719    -0.43700
C1549       C  0.62824457  0.63526606  0.98759768    -0.00100
C1550       C  0.64764449  0.66185943  0.00364360    -0.11900
C1551       C  0.63544681  0.67191505  0.02477976     0.02200
C1552       C  0.60280678  0.65498871  0.03055300    -0.00200
C1553       C  0.58305471  0.62941762  0.01330357    -0.11900
C1554       C  0.59543749  0.61957244  0.99187340     0.02100
H1555       H  0.67285063  0.67429189  0.00030328     0.15000
H1556       H  0.55801199  0.61621617  0.01727721     0.15000
C1557       C  0.57424408  0.59191359  0.97613840     0.36700
C1558       C  0.65759870  0.69861053  0.04110572     0.36600
N1559       N  0.55716152  0.56966846  0.96363853    -0.43700
N1560       N  0.67543859  0.71989315  0.05423781    -0.43700
C1561       C  0.56984013  0.80960912  0.08396195    -0.00100
C1562       C  0.57921469  0.80363310  0.10964815    -0.11900
C1563       C  0.58066759  0.77626550  0.11393147     0.02200
C1564       C  0.57160724  0.75368051  0.09248629    -0.00200
C1565       C  0.56171040  0.75951459  0.06692357    -0.11900
C1566       C  0.56125469  0.78737712  0.06239393     0.02100
H1567       H  0.58577073  0.82059781  0.12633348     0.15000
H1568       H  0.55462445  0.74240528  0.05030160     0.15000
C1569       C  0.55096380  0.79223953  0.03572503     0.36700
C1570       C  0.59064100  0.77153731  0.14080489     0.36600
N1571       N  0.04398203  0.79709812  0.01427319    -0.43700
N1572       N  0.59868450  0.76761917  0.16226938    -0.43700
C1573       C  0.62772799  0.64809953  0.15106319    -0.00100
C1574       C  0.62848346  0.65233211  0.17985101    -0.11900
C1575       C  0.64150092  0.63925432  0.19735734     0.02200
C1576       C  0.65483295  0.62230102  0.18597404    -0.00200
C1577       C  0.65633423  0.62020917  0.15705953    -0.11900
C1578       C  0.64251898  0.63257796  0.13954825     0.02100
H1579       H  0.61728485  0.66434743  0.18880463     0.15000
H1580       H  0.66665479  0.60731900  0.14818963     0.15000
C1581       C  0.64337758  0.62863431  0.10991737     0.36700
C1582       C  0.64050994  0.64319146  0.22697016     0.36600
N1583       N  0.64406030  0.62546677  0.08618233    -0.43700
N1584       N  0.63974904  0.64637033  0.25069139    -0.43700
C1585       C  0.99172742  0.62063693  0.15393730    -0.00100
C1586       C  0.97644439  0.58779752  0.15635683    -0.11900
C1587       C  0.95375761  0.57194045  0.17710136     0.02200
C1588       C  0.94599041  0.58912477  0.19574807    -0.00200
C1589       C  0.95999922  0.62172135  0.19191993    -0.11900
C1590       C  0.48197466  0.63747875  0.17112053     0.02100
H1591       H  0.98326243  0.57468934  0.14291143     0.15000
H1592       H  0.95393699  0.63536549  0.20546293     0.15000
C1593       C  0.49509552  0.67094252  0.16810346     0.36700
C1594       C  0.93974117  0.53834505  0.17923899     0.36600
N1595       N  0.50559157  0.69771078  0.16552008    -0.43700
N1596       N  0.92847952  0.51138869  0.18087096    -0.43700
C1597       C  0.94141638  0.83762572  0.97961927    -0.00100
C1598       C  0.95007767  0.86519238  0.99486721    -0.11900
C1599       C  0.97186359  0.87460805  0.01687567     0.02200
C1600       C  0.98467407  0.85576042  0.02451834    -0.00200
C1601       C  0.97478604  0.82752929  0.01032637    -0.11900
C1602       C  0.95374191  0.81843979  0.98803573     0.02100
H1603       H  0.94136097  0.88048287  0.98851539     0.15000
H1604       H  0.98481790  0.81310328  0.01586984     0.15000
C1605       C  0.94703123  0.79020270  0.97335906     0.36700
C1606       C  0.48388717  0.90566333  0.02867169     0.36600
N1607       N  0.94212492  0.76774720  0.96155793    -0.43700
N1608       N  0.49370002  0.93054615  0.03791880    -0.43700
C1609       C  0.75672858  0.68067525  0.92433769    -0.00100
C1610       C  0.75671402  0.70906600  0.92501608    -0.11900
C1611       C  0.78430369  0.73785336  0.92074029     0.02200
C1612       C  0.81297860  0.73875247  0.91563902    -0.00200
C1613       C  0.81278330  0.71021010  0.91403981    -0.11900
C1614       C  0.78507253  0.68135801  0.91834034     0.02100
H1615       H  0.73500789  0.70882601  0.92915825     0.15000
H1616       H  0.83439352  0.71039678  0.90958017     0.15000
C1617       C  0.78617651  0.65284944  0.91529782     0.36700
C1618       C  0.78201141  0.76586588  0.92088042     0.36600
N1619       N  0.78711356  0.63004927  0.91263923    -0.43700
N1620       N  0.77988861  0.78815287  0.92091017    -0.43700
C1621       C  0.52689958  0.87221512  0.82009607    -0.00100
C1622       C  0.53111125  0.87509403  0.84897396    -0.11900
C1623       C  0.00505501  0.86339324  0.86650646     0.02200
C1624       C  0.97428419  0.84653074  0.85538941    -0.00200
C1625       C  0.97026624  0.84106129  0.82670217    -0.11900
C1626       C  0.99622760  0.85406729  0.80892532     0.02100
H1627       H  0.55464806  0.88828927  0.85757322     0.15000
H1628       H  0.94676558  0.82799979  0.81800787     0.15000
C1629       C  0.99087337  0.84873345  0.77943465     0.36700
C1630       C  0.51071699  0.86766847  0.89630761     0.36600
N1631       N  0.98670783  0.84444975  0.75579322    -0.43700
N1632       N  0.51512596  0.87140085  0.91997560    -0.43700
C1633       C  0.63360813  0.50610110  0.82105963    -0.00100
C1634       C  0.66415533  0.51993777  0.83198963    -0.11900
C1635       C  0.67403469  0.54205289  0.85350629     0.02200
C1636       C  0.65292928  0.55051301  0.86493105    -0.00200
C1637       C  0.62285751  0.53786933  0.85295428    -0.11900
C1638       C  0.61316835  0.01591128  0.83013186     0.02100
H1639       H  0.68016667  0.51284085  0.82411844     0.15000
H1640       H  0.60633407  0.54389235  0.86153080     0.15000
C1641       C  0.58112100  0.00159037  0.82039324     0.36700
C1642       C  0.70592771  0.55527996  0.86349144     0.36600
N1643       N  0.55535987  0.99001909  0.81275147    -0.43700
N1644       N  0.73152624  0.56579599  0.87131455    -0.43700
C1645       C  0.84579768  0.89760531  0.81263632    -0.00100
C1646       C  0.87319308  0.91656692  0.82831167    -0.11900
C1647       C  0.88301676  0.90362023  0.84936251     0.02200
C1648       C  0.86507096  0.87123281  0.85521658    -0.00200
C1649       C  0.83695357  0.85275076  0.84065175    -0.11900
C1650       C  0.82718562  0.86541395  0.81963361     0.02100
H1651       H  0.88784260  0.94116113  0.82319390     0.15000
H1652       H  0.82296150  0.82787140  0.84511301     0.15000
C1653       C  0.79852422  0.84412662  0.80502704     0.36700
C1654       C  0.91291228  0.92342020  0.86278114     0.36600
N1655       N  0.77566578  0.82690958  0.79328976    -0.43700
N1656       N  0.93701220  0.93924181  0.87335578    -0.43700
C1657       C  0.74394557  0.92619041  0.75540981    -0.00100
C1658       C  0.74439972  0.95478098  0.75712138    -0.11900
C1659       C  0.71652892  0.95567059  0.75917732     0.02200
C1660       C  0.68717956  0.92737004  0.76031030    -0.00200
C1661       C  0.68685241  0.89874319  0.75965848    -0.11900
C1662       C  0.71474868  0.89789953  0.75698539     0.02100
H1663       H  0.76665693  0.97667994  0.75600923     0.15000
H1664       H  0.66462946  0.87683517  0.76085156     0.15000
C1665       C  0.71268772  0.86768262  0.75658598     0.36700
C1666       C  0.71907796  0.98609443  0.76017876     0.36600
N1667       N  0.71087995  0.84338980  0.75634439    -0.43700
N1668       N  0.71943465  0.51080660  0.76048150    -0.43700
C1669       C  0.87895035  0.85226303  0.65424225    -0.00100
C1670       C  0.87528020  0.84577349  0.68278839    -0.11900
C1671       C  0.86213575  0.85908635  0.69991602     0.02200
C1672       C  0.85173570  0.87851307  0.68833994    -0.00200
C1673       C  0.85332159  0.88316873  0.65960911    -0.11900
C1674       C  0.86713200  0.87053085  0.64256782     0.02100
H1675       H  0.88404184  0.83157904  0.69191083     0.15000
H1676       H  0.84526525  0.89802958  0.65066151     0.15000
C1677       C  0.86925648  0.87691523  0.61316223     0.36700
C1678       C  0.85965432  0.85284209  0.72937816     0.36600
N1679       N  0.87114274  0.88197342  0.58958877    -0.43700
N1680       N  0.85737129  0.84807875  0.75301264    -0.43700
C1681       C  0.51413218  0.87384565  0.64995183    -0.00100
C1682       C  0.52832693  0.90609557  0.65561392    -0.11900
C1683       C  0.55109501  0.92014290  0.67682825     0.02200
C1684       C  0.55990270  0.90162919  0.69279792    -0.00200
C1685       C  0.54778031  0.87011923  0.68498917    -0.11900
C1686       C  0.52526097  0.85626128  0.66391467     0.02100
H1687       H  0.01955672  0.92020170  0.64486789     0.15000
H1688       H  0.55482993  0.85558739  0.69629077     0.15000
C1689       C  0.51324762  0.82359290  0.65725026     0.36700
C1690       C  0.56388058  0.95310297  0.68248677     0.36600
N1691       N  0.50347533  0.79747753  0.65162326    -0.43700
N1692       N  0.57420798  0.97956916  0.68694557    -0.43700
C1693       C  0.90513153  0.55674785  0.65157567    -0.00100
C1694       C  0.87424254  0.54699028  0.65999375    -0.11900
C1695       C  0.85979892  0.52509207  0.68131281     0.02200
C1696       C  0.87614660  0.51227019  0.69477762    -0.00200
C1697       C  0.90778925  0.52375823  0.68813353    -0.11900
C1698       C  0.92237810  0.54578678  0.66669500     0.02100
H1699       H  0.86081551  0.55567566  0.64926426     0.15000
H1700       H  0.92054543  0.51408833  0.69850087     0.15000
C1701       C  0.95437024  0.55521196  0.65976264     0.36700
C1702       C  0.82771187  0.01583480  0.68788801     0.36600
N1703       N  0.98004392  0.56273692  0.65428536    -0.43700
N1704       N  0.80224145  0.00823975  0.69421600    -0.43700
C1705       C  0.51108329  0.63368149  0.52393644    -0.00100
C1706       C  0.52406913  0.66323468  0.51137971    -0.11900
C1707       C  0.54604148  0.67211559  0.48986803     0.02200
C1708       C  0.55511497  0.65084514  0.47984460    -0.00200
C1709       C  0.54312922  0.62174080  0.49333612    -0.11900
C1710       C  0.52130406  0.61302569  0.51510126     0.02100
H1711       H  0.51655386  0.67936705  0.51812679     0.15000
H1712       H  0.54959978  0.60503217  0.48597149     0.15000
C1713       C  0.50777173  0.58174253  0.52629514     0.36700
C1714       C  0.55863904  0.70326444  0.47857113     0.36600
N1715       N  0.49685352  0.55654716  0.53502117    -0.43700
N1716       N  0.56862962  0.72834494  0.46981581    -0.43700
C1717       C  0.93073174  0.68468640  0.58797332    -0.00100
C1718       C  0.90382883  0.68352565  0.59882487    -0.11900
C1719       C  0.90247911  0.71105476  0.60265629     0.02200
C1720       C  0.92829732  0.74059078  0.59497474    -0.00200
C1721       C  0.95501481  0.74146618  0.58374823    -0.11900
C1722       C  0.95648383  0.71401012  0.58040030     0.02100
H1723       H  0.88387616  0.66101045  0.60458988     0.15000
H1724       H  0.97501922  0.76375902  0.57762820     0.15000
C1725       C  0.98418556  0.71635194  0.56802211     0.36700
C1726       C  0.87405035  0.70802842  0.61400864     0.36600
N1727       N  0.50662361  0.71832219  0.55862171    -0.43700
N1728       N  0.85120680  0.70547397  0.62311693    -0.43700
C1729       C  0.85263620  0.97574499  0.31532692    -0.00100
C1730       C  0.82841696  0.97173034  0.33302898    -0.11900
C1731       C  0.81999096  0.95207300  0.35612336     0.02200
C1732       C  0.83641449  0.93610800  0.36230723    -0.00200
C1733       C  0.85876205  0.93795492  0.34318414    -0.11900
C1734       C  0.86672831  0.95731745  0.31966595     0.02100
H1735       H  0.81939502  0.48928384  0.33368606     0.15000
H1736       H  0.87098944  0.92524761  0.34714990     0.15000
C1737       C  0.89075343  0.95930502  0.30139658     0.36700
C1738       C  0.79519069  0.94997868  0.37348673     0.36600
N1739       N  0.90996128  0.96089313  0.28666367    -0.43700
N1740       N  0.77531113  0.94837220  0.38731938    -0.43700
C1741       C  0.88153191  0.52292403  0.52760032    -0.00100
C1742       C  0.89150276  0.50086610  0.52913686    -0.11900
C1743       C  0.88345442  0.97781350  0.50671771     0.02200
C1744       C  0.85724707  0.97031442  0.48973084    -0.00200
C1745       C  0.84399900  0.98969318  0.49049816    -0.11900
C1746       C  0.85682336  0.51712080  0.50902986     0.02100
H1747       H  0.91019631  0.50459200  0.54334130     0.15000
H1748       H  0.82405072  0.98424685  0.47724417     0.15000
C1749       C  0.84611903  0.53924560  0.50564312     0.36700
C1750       C  0.89812130  0.95883185  0.50717705     0.36600
N1751       N  0.83773932  0.55713125  0.50276493    -0.43700
N1752       N  0.91013538  0.94388886  0.50758733    -0.43700
C1753       C  0.89273013  0.83746685  0.53252819    -0.00100
C1754       C  0.91154348  0.85591371  0.51039109    -0.11900
C1755       C  0.89884823  0.86520942  0.48863614     0.02200
C1756       C  0.86664172  0.85605426  0.48887468    -0.00200
C1757       C  0.84767493  0.83616958  0.51012553    -0.11900
C1758       C  0.86019485  0.82705350  0.53179062     0.02100
H1759       H  0.93649108  0.86399777  0.51053849     0.15000
H1760       H  0.82284357  0.82864749  0.51053142     0.15000
C1761       C  0.83919426  0.80921156  0.55405008     0.36700
C1762       C  0.91980469  0.88557623  0.46743392     0.36600
N1763       N  0.82218603  0.79522049  0.57187529    -0.43700
N1764       N  0.93683596  0.90195424  0.45056681    -0.43700
C1765       C  0.74030860  0.80992775  0.42648251    -0.00100
C1766       C  0.71263663  0.81002030  0.41979593    -0.11900
C1767       C  0.68422622  0.78178601  0.41521422     0.02200
C1768       C  0.68310494  0.75268046  0.41781322    -0.00200
C1769       C  0.71078486  0.75277371  0.42499700    -0.11900
C1770       C  0.73917009  0.78091047  0.42913405     0.02100
H1771       H  0.71329939  0.83222379  0.41781582     0.15000
H1772       H  0.71036124  0.73070606  0.42720792     0.15000
C1773       C  0.76658698  0.77931668  0.43711523     0.36700
C1774       C  0.65649646  0.78342475  0.40878514     0.36600
N1775       N  0.78859149  0.77816019  0.44358679    -0.43700
N1776       N  0.63425537  0.78476308  0.40372772    -0.43700
loop_ 
_geom_bond_atom_site_label_1 
_geom_bond_atom_site_label_2 
_geom_bond_distance 
_geom_bond_site_symmetry_2 
_ccdc_geom_bond_type 
In1           O3   2.210       .  S
In1           O4   2.269       .  S
In1          O12   2.232       .  S
In1           O6   2.260       .  S
In1           O8   2.268       .  S
In1           O9   2.268       .  S
In1          O10   2.222       .  S
In1          O13   2.211       .  S
C2            O8   1.266       .  A
C2           O10   1.261       .  A
C2          C412   1.480       .  S
O3           C11   1.264       .  A
O4           C11   1.269       .  A
C5           O12   1.262       .  A
C5            O6   1.266       .  A
C5          C433   1.484       .  S
C7            O9   1.267       .  A
C7           O13   1.258       .  A
C7          C400   1.490       .  S
C11         C424   1.488       .  S
In14         O16   2.246       .  S
In14         O17   2.272       .  S
In14         O25   2.247       .  S
In14         O19   2.248       .  S
In14         O21   2.283       .  S
In14         O22   2.268       .  S
In14         O23   2.202       .  S
In14         O26   2.233       .  S
C15          O21   1.266       .  A
C15          O23   1.258       .  A
C15         C409   1.489       .  S
O16          C24   1.261       .  A
O17          C24   1.265       .  A
C18          O25   1.265       .  A
C18          O19   1.265       .  A
C18         C385   1.482       .  S
C20          O22   1.266       .  A
C20          O26   1.260       .  A
C20         C361   1.492       .  S
C24        C1261   1.487       .  S
In27         O29   2.220       .  S
In27         O30   2.287       .  S
In27         O38   2.249       .  S
In27         O32   2.260       .  S
In27         O34   2.274       .  S
In27         O35   2.274       .  S
In27         O36   2.235       .  S
In27         O39   2.228       .  S
C28          O34   1.265       .  A
C28          O36   1.259       .  A
C28         C337   1.483       .  S
O29          C37   1.259       .  A
O30          C37   1.266       .  A
C31          O38   1.264       .  A
C31          O32   1.265       .  A
C31         C388   1.495       .  S
C33          O35   1.267       .  A
C33          O39   1.261       .  A
C33         C421   1.494       .  S
C37        C1237   1.485       .  S
In40         O42   2.222       .  S
In40         O43   2.273       .  S
In40         O51   2.246       .  S
In40         O45   2.252       .  S
In40         O47   2.231       .  S
In40         O48   2.275       .  S
In40         O49   2.266       .  S
In40         O52   2.208       .  S
C41          O47   1.258       .  A
C41          O49   1.264       .  A
C41         C340   1.477       .  S
O42          C50   1.260       .  A
O43          C50   1.266       .  A
C44          O51   1.264       .  A
C44          O45   1.264       .  A
C44         C325   1.487       .  S
C46          O48   1.268       .  A
C46          O52   1.260       .  A
C46         C313   1.494       .  S
C50         C808   1.481       .  S
In53         O55   2.279       .  S
In53         O56   2.228       .  S
In53         O64   2.238       .  S
In53         O58   2.248       .  S
In53         O60   2.265       .  S
In53         O61   2.272       .  S
In53         O62   2.232       .  S
In53         O65   2.236       .  S
C54          O60   1.262       .  A
C54          O62   1.257       .  A
C54         C289   1.475       .  S
O55          C63   1.266       .  A
O56          C63   1.257       .  A
C57          O64   1.265       .  A
C57          O58   1.266       .  A
C57         C328   1.489       .  S
C59          O61   1.268       .  A
C59          O65   1.263       .  A
C59         C352   1.498       .  S
C63         C745   1.483       .  S
In66         O68   2.219       .  S
In66         O69   2.288       .  S
In66         O77   2.255       .  S
In66         O71   2.249       .  S
In66         O73   2.258       .  S
In66         O74   2.262       .  S
In66         O75   2.234       .  S
In66         O78   2.213       .  S
C67          O73   1.263       .  A
C67          O75   1.259       .  A
C67         C292   1.477       .  S
O68          C76   1.256       .  A
O69          C76   1.265       .  A
C70          O77   1.263       .  A
C70          O71   1.263       .  A
C70         C280   1.482       .  S
C72          O74   1.269       .  A
C72          O78   1.262       .  A
C72         C265   1.493       .  S
C76         C316   1.485       .  S
In79         O81   2.217       .  S
In79         O82   2.287       .  S
In79         O90   2.253       .  S
In79         O84   2.250       .  S
In79         O86   2.251       .  S
In79         O87   2.262       .  S
In79         O88   2.246       .  S
In79         O91   2.209       .  S
C80          O86   1.263       .  A
C80          O88   1.259       .  A
C80         C241   1.476       .  S
O81          C89   1.257       .  A
O82          C89   1.265       .  A
C83          O90   1.263       .  A
C83          O84   1.263       .  A
C83         C232   1.488       .  S
C85          O87   1.269       .  A
C85          O91   1.262       .  A
C85         C220   1.492       .  S
C89        C1141   1.484   1_455  S
In92         O94   2.222       .  S
In92         O95   2.286       .  S
In92        O103   2.245       .  S
In92         O97   2.261       .  S
In92         O99   2.271       .  S
In92        O100   2.261       .  S
In92        O101   2.223       .  S
In92        O104   2.249       .  S
C93          O99   1.263       .  A
C93         O101   1.257       .  A
C93         C244   1.477       .  S
O94         C102   1.258       .  A
O95         C102   1.265       .  A
C96         O103   1.263       .  A
C96          O97   1.265       .  A
C96         C196   1.493       .  S
C98         O100   1.266       .  A
C98         O104   1.263       .  A
C98         C181   1.500       .  S
C102        C652   1.483   1_545  S
In105       O107   2.208       .  S
In105       O108   2.265       .  S
In105       O116   2.250       .  S
In105       O110   2.241       .  S
In105       O112   2.267       .  S
In105       O113   2.277       .  S
In105       O114   2.222       .  S
In105       O117   2.220       .  S
C106        O112   1.266       .  A
C106        O114   1.260       .  A
C106        C169   1.484       .  S
O107        C115   1.262       .  A
O108        C115   1.269       .  A
C109        O116   1.264       .  A
C109        O110   1.265       .  A
C109        C193   1.485       .  S
C111        O113   1.267       .  A
C111        O117   1.260       .  A
C111        C256   1.494       .  S
C115        C841   1.483   1_545  S
In118       O120   2.235       .  S
In118       O121   2.276       .  S
In118       O129   2.238       .  S
In118       O123   2.251       .  S
In118       O125   2.267       .  S
In118       O126   2.279       .  S
In118       O127   2.220       .  S
In118       O130   2.236       .  S
C119        O125   1.267       .  A
C119        O127   1.261       .  A
C119        C172   1.490       .  S
O120        C128   1.262       .  A
O121        C128   1.269       .  A
C122        O129   1.265       .  A
C122        O123   1.266       .  A
C122        C436   1.489       .  S
C124        O126   1.269       .  A
C124        O130   1.260       .  A
C124        C376   1.496       .  S
C128        C184   1.489       .  S
In131       O133   2.213       .  S
In131       O134   2.275       .  S
In131       O142   2.255       .  S
In131       O136   2.247       .  S
In131       O138   2.264       .  S
In131       O139   2.270       .  S
In131       O140   2.222       .  S
In131       O143   2.212       .  S
C132        O138   1.266       .  A
C132        O140   1.260       .  A
C132        C157   1.488       .  S
O133        C141   1.259       .  A
O134        C141   1.267       .  A
C135        O142   1.264       .  A
C135        O136   1.264       .  A
C135        C229   1.482       .  S
C137        O139   1.269       .  A
C137        O143   1.261       .  A
C137        C205   1.492       .  S
C141       C1156   1.481   1_455  S
In144       O146   2.226       .  S
In144       O147   2.276       .  S
In144       O155   2.242       .  S
In144       O149   2.251       .  S
In144       O151   2.269       .  S
In144       O152   2.267       .  S
In144       O153   2.215       .  S
In144       O156   2.234       .  S
C145        O151   1.264       .  A
C145        O153   1.259       .  A
C145        C160   1.476       .  S
O146        C154   1.261       .  A
O147        C154   1.266       .  A
C148        O155   1.263       .  A
C148        O149   1.264       .  A
C148        C277   1.484       .  S
C150        O152   1.266       .  A
C150        O156   1.261       .  A
C150        C304   1.490       .  S
C154        C217   1.484       .  S
C157        C158   1.406       .  A
C157        C162   1.417       .  A
C158        C603   1.395       .  A
C158        H163   1.085       .  S
C159        C160   1.409   1_554  A
C159        C602   1.396   1_545  A
C159        C166   1.446       .  S
C160        C161   1.403       .  A
C161        C606   1.407   1_546  A
C161        H164   1.085       .  S
C162        C605   1.408   1_554  A
C162        C165   1.443       .  S
C165        N167   1.157       .  T
C166        N168   1.157       .  T
C169        C170   1.405       .  A
C169        C174   1.413       .  A
C170       C1059   1.407       .  A
C170        H175   1.085       .  S
C171        C172   1.416       .  A
C171       C1058   1.407   1_455  A
C171        C178   1.443       .  S
C172        C173   1.406       .  A
C173       C1062   1.397   1_455  A
C173        H176   1.085       .  S
C174       C1061   1.397       .  A
C174        C177   1.445       .  S
C177        N179   1.157       .  T
C178        N180   1.157       .  T
C181        C182   1.409       .  A
C181        C186   1.418       .  A
C182        C183   1.405       .  A
C182        H187   1.085       .  S
C183        C184   1.413       .  A
C183        C190   1.445       .  S
C184        C185   1.404       .  A
C185        C186   1.408       .  A
C185        H188   1.086       .  S
C186        C189   1.443       .  S
C189        N191   1.157       .  T
C190        N192   1.157       .  T
C193        C194   1.403       .  A
C193        C198   1.411       .  A
C194        C195   1.404       .  A
C194        H199   1.086       .  S
C195        C196   1.418       .  A
C195        C202   1.444       .  S
C196        C197   1.407       .  A
C197        C198   1.405       .  A
C197        H200   1.085       .  S
C198        C201   1.444       .  S
C201        N203   1.157       .  T
C202        N648   1.157   1_545  T
N204        C646   1.157       .  T
C205        C206   1.409       .  A
C205        C210   1.417       .  A
C206        C207   1.409       .  A
C206        H211   1.084       .  S
C207        C208   1.412       .  A
C207        C214   1.443       .  S
C208        C546   1.484       .  S
C208        C209   1.401       .  A
C209        C210   1.397       .  A
C209        H656   1.086       .  S
C210        C213   1.445       .  S
H212        C653   1.086       .  S
C213        N659   1.157       .  T
C214        N216   1.157       .  T
N215        C657   1.157       .  T
C217        C218   1.401       .  A
C217        C222   1.413       .  A
C218        C219   1.398   1_556  A
C218        H223   1.086       .  S
C219        C220   1.418       .  A
C219        C226   1.445       .  S
C220        C221   1.408       .  A
C221        C222   1.407   1_554  A
C221        H224   1.085       .  S
C222        C225   1.443       .  S
C225        N227   1.157       .  T
C226        N228   1.157       .  T
C229        C230   1.403       .  A
C229        C234   1.411       .  A
C230        C231   1.405       .  A
C230        H235   1.085       .  S
C231        C232   1.416       .  A
C231        C238   1.444       .  S
C232        C233   1.405       .  A
C233        C234   1.404       .  A
C233        H236   1.085       .  S
C234        C237   1.444       .  S
C237       N1127   1.157       .  T
C238        N240   1.157       .  T
N239       C1125   1.157       .  T
C241        C242   1.400       .  A
C241        C246   1.414       .  A
C242        C243   1.398       .  A
C242        H247   1.085       .  S
C243        C244   1.412       .  A
C243        C250   1.445       .  S
C244        C245   1.404       .  A
C245        C246   1.404       .  A
C245        H248   1.085       .  S
C246        C249   1.445       .  S
C249        N251   1.158       .  T
C250        N252   1.157       .  T
C253        C977   1.484       .  S
C253        C254   1.405       .  A
C253       C1146   1.411       .  A
C254        C255   1.410       .  A
C254        H259   1.084       .  S
C255        C256   1.417       .  A
C255        C262   1.443       .  S
C256        C257   1.407       .  A
C257       C1146   1.397       .  A
C257        H260   1.084       .  S
C258       C1141   1.411       .  A
C258       C1145   1.397       .  A
C258        C261   1.446       .  S
C261        N263   1.157   1_655  T
C262        N264   1.157       .  T
C265        C266   1.409       .  A
C265        C270   1.419       .  A
C266        C267   1.408   1_556  A
C266        H271   1.085       .  S
C267        C268   1.412       .  A
C267       C1162   1.444       .  S
C268       C1029   1.481       .  S
C268        C269   1.400       .  A
C269        C270   1.397   1_554  A
C269        H272   1.086       .  S
C270        C273   1.444       .  S
C273        N275   1.157       .  T
C274       C1155   1.444       .  S
C274        N276   1.157       .  T
C277        C278   1.404       .  A
C277        C282   1.414       .  A
C278        C279   1.402       .  A
C278        H283   1.084       .  S
C279        C280   1.412       .  A
C279        C286   1.444       .  S
C280        C281   1.404       .  A
C281        C282   1.405       .  A
C281        H284   1.084       .  S
C282        C285   1.444       .  S
C285        N287   1.157       .  T
C286        N288   1.157       .  T
C289        C290   1.402       .  A
C289       C1182   1.411   1_455  A
C290       C1179   1.402       .  A
C290        H295   1.084       .  S
C291        C292   1.414       .  A
C291       C1178   1.402       .  A
C291       C1186   1.445       .  S
C292        C293   1.402       .  A
C293        C294   1.401       .  A
C293        H296   1.084       .  S
C294       C1177   1.411       .  A
C294        C297   1.444       .  S
C297        N299   1.157       .  T
C298       C1179   1.445       .  S
C298        N300   1.157       .  T
C301        C507   1.481   1_545  S
C301        C302   1.402       .  A
C301        C750   1.411       .  A
C302        C303   1.400       .  A
C302        H307   1.083       .  S
C303        C304   1.416       .  A
C303        C310   1.444       .  S
C304        C305   1.408       .  A
C305        C750   1.407       .  A
C305        H308   1.083       .  S
C306        C745   1.411       .  A
C306        C749   1.407       .  A
C306        C309   1.443       .  S
C309        N311   1.157       .  T
C310        N312   1.157       .  T
C313        C314   1.410       .  A
C313        C318   1.418       .  A
C314        C315   1.410       .  A
C314        H319   1.082       .  S
C315        C316   1.412       .  A
C315        C322   1.443       .  S
C316        C317   1.401       .  A
C317        C318   1.397       .  A
C317        H320   1.083       .  S
C318        C321   1.445       .  S
C321        N323   1.157       .  T
C322        N324   1.157       .  T
C325        C326   1.404       .  A
C325        C330   1.414       .  A
C326        C327   1.402       .  A
C326        H331   1.085       .  S
C327        C328   1.416       .  A
C327        C334   1.444       .  S
C328        C329   1.405       .  A
C329        C330   1.404       .  A
C329        H332   1.085       .  S
C330        C333   1.444       .  S
C333        N335   1.157       .  T
C334        N780   1.157       .  T
N336        C778   1.157   1_545  T
C337        C338   1.405       .  A
C337        C342   1.415       .  A
C338        C339   1.405       .  A
C338        H343   1.085       .  S
C339        C340   1.412       .  A
C339        C346   1.445       .  S
C340        C341   1.400       .  A
C341        C342   1.402       .  A
C341        H344   1.085       .  S
C342        C345   1.444       .  S
C345        N347   1.157       .  T
C346        N348   1.158       .  T
C349        C925   1.485   1_455  S
C349        C350   1.404       .  A
C349        C354   1.411       .  A
C350        C351   1.410       .  A
C350       H1243   1.088       .  S
C351        C352   1.419       .  A
C351        C358   1.443       .  S
C352        C353   1.407       .  A
C353        C354   1.400       .  A
C353        H356   1.088       .  S
C354        C357   1.445       .  S
H355       C1238   1.088       .  S
C357        N359   1.157       .  T
C358        N360   1.157       .  T
C361        C362   1.408       .  A
C361        C366   1.417       .  A
C362        C363   1.400       .  A
C362        H367   1.084       .  S
C363        C364   1.409       .  A
C363        C814   1.446       .  S
C364        C494   1.480   1_545  S
C364        C365   1.403       .  A
C365        C366   1.407       .  A
C365        H368   1.084       .  S
C366        C369   1.443       .  S
C369        N371   1.157       .  T
C370        C807   1.446       .  S
C370        N372   1.157       .  T
C373        C912   1.487   1_455  S
C373        C374   1.401       .  A
C373        C378   1.414       .  A
C374        C375   1.404       .  A
C374        H379   1.085       .  S
C375        C376   1.419       .  A
C375        C382   1.444       .  S
C376        C377   1.407       .  A
C377        C378   1.408       .  A
C377        H380   1.085       .  S
C378        C381   1.444       .  S
C381        N383   1.157   1_455  T
C382        N384   1.157       .  T
C385        C386   1.403       .  A
C385        C390   1.410       .  A
C386        C387   1.406       .  A
C386        H391   1.085       .  S
C387        C388   1.418       .  A
C387        C394   1.443       .  S
C388        C389   1.408       .  A
C389        C390   1.403       .  A
C389        H392   1.085       .  S
C390        C393   1.444       .  S
C393       N1283   1.157       .  T
C394        N396   1.157       .  T
N395       C1281   1.157   1_455  T
C397        C559   1.485       .  S
C397        C398   1.402       .  A
C397        C402   1.413       .  A
C398        C399   1.396       .  A
C398        H847   1.086       .  S
C399        C400   1.418       .  A
C399        C406   1.446       .  S
C400        C401   1.407       .  A
C401        C402   1.406       .  A
C401        H404   1.085       .  S
C402        C405   1.443       .  S
H403        C842   1.086       .  S
C405        N407   1.157       .  T
C406        N408   1.158       .  T
C409        C410   1.406       .  A
C409        C414   1.416       .  A
C410        C855   1.393   1_545  A
C410        H415   1.085       .  S
C411        C412   1.409       .  A
C411        C854   1.394       .  A
C411        C418   1.446       .  S
C412        C413   1.405       .  A
C413        C858   1.410       .  A
C413        H416   1.085       .  S
C414        C857   1.410   1_545  A
C414        C417   1.443       .  S
C417        N419   1.158       .  T
C418        N420   1.157       .  T
C421        C422   1.409       .  A
C421        C426   1.417       .  A
C422        C423   1.410       .  A
C422        H427   1.085       .  S
C423        C424   1.415       .  A
C423        C430   1.443       .  S
C424        C425   1.402       .  A
C425        C426   1.397       .  A
C425        H428   1.086       .  S
C426        C429   1.444       .  S
C429        N431   1.157       .  T
C430        N432   1.157       .  T
C433        C434   1.404       .  A
C433        C438   1.413       .  A
C434        C435   1.406       .  A
C434        H439   1.085       .  S
C435        C436   1.415       .  A
C435        C442   1.443       .  S
C436        C437   1.405       .  A
C437        C438   1.401       .  A
C437        H440   1.085       .  S
C438        C441   1.445       .  S
C441        N443   1.157       .  T
C442        N444   1.157       .  T
In445       O447   2.211       .  S
In445       O448   2.274       .  S
In445       O456   2.233       .  S
In445       O450   2.259       .  S
In445       O452   2.266       .  S
In445       O453   2.271       .  S
In445       O454   2.220       .  S
In445       O457   2.208       .  S
C446        O452   1.266       .  A
C446        O454   1.262       .  A
C446        C856   1.480       .  S
O447        C455   1.264       .  A
O448        C455   1.269       .  A
C449        O456   1.262       .  A
C449        O450   1.266       .  A
C449        C877   1.483       .  S
C451        O453   1.268       .  A
C451        O457   1.258       .  A
C451        C844   1.490       .  S
C455        C868   1.490       .  S
In458       O460   2.245       .  S
In458       O461   2.277       .  S
In458       O469   2.250       .  S
In458       O463   2.252       .  S
In458       O465   2.278       .  S
In458       O466   2.274       .  S
In458       O467   2.210       .  S
In458       O470   2.231       .  S
C459        O465   1.266       .  A
C459        O467   1.258       .  A
C459        C853   1.490       .  S
O460        C468   1.261       .  A
O461        C468   1.266       .  A
C462        O469   1.265       .  A
C462        O463   1.265       .  A
C462        C829   1.483       .  S
C464        O466   1.266       .  A
C464        O470   1.260       .  A
C464        C805   1.494       .  S
C468       C1705   1.489       .  S
In471       O473   2.217       .  S
In471       O474   2.290       .  S
In471       O482   2.251       .  S
In471       O476   2.255       .  S
In471       O478   2.268       .  S
In471       O479   2.274       .  S
In471       O480   2.227       .  S
In471       O483   2.230       .  S
C472        O478   1.264       .  A
C472        O480   1.259       .  A
C472        C781   1.480       .  S
O473        C481   1.259       .  A
O474        C481   1.266       .  A
C475        O482   1.264       .  A
C475        O476   1.264       .  A
C475        C832   1.495       .  S
C477        O479   1.267       .  A
C477        O483   1.261       .  A
C477        C865   1.494       .  S
C481       C1681   1.485       .  S
In484       O486   2.222       .  S
In484       O487   2.270       .  S
In484       O495   2.243       .  S
In484       O489   2.250       .  S
In484       O491   2.224       .  S
In484       O492   2.271       .  S
In484       O493   2.264       .  S
In484       O496   2.209       .  S
C485        O491   1.258       .  A
C485        O493   1.264       .  A
C485        C784   1.473       .  S
O486        C494   1.260       .  A
O487        C494   1.265       .  A
C488        O495   1.264       .  A
C488        O489   1.264       .  A
C488        C769   1.486       .  S
C490        O492   1.268       .  A
C490        O496   1.260       .  A
C490        C757   1.492       .  S
In497       O499   2.278       .  S
In497       O500   2.225       .  S
In497       O508   2.246       .  S
In497       O502   2.252       .  S
In497       O504   2.271       .  S
In497       O505   2.273       .  S
In497       O506   2.234       .  S
In497       O509   2.235       .  S
C498        O504   1.262       .  A
C498        O506   1.257       .  A
C498        C733   1.477       .  S
O499        C507   1.265       .  A
O500        C507   1.257       .  A
C501        O508   1.264       .  A
C501        O502   1.265       .  A
C501        C772   1.491       .  S
C503        O505   1.266       .  A
C503        O509   1.263       .  A
C503        C796   1.497       .  S
In510       O512   2.216       .  S
In510       O513   2.277       .  S
In510       O521   2.239       .  S
In510       O515   2.255       .  S
In510       O517   2.258       .  S
In510       O518   2.269       .  S
In510       O519   2.231       .  S
In510       O522   2.213       .  S
C511        O517   1.264       .  A
C511        O519   1.259       .  A
C511        C736   1.478       .  S
O512        C520   1.259       .  A
O513        C520   1.266       .  A
C514        O521   1.263       .  A
C514        O515   1.265       .  A
C514        C724   1.489       .  S
C516        O518   1.268       .  A
C516        O522   1.261       .  A
C516        C709   1.492       .  S
C520        C760   1.482       .  S
In523       O525   2.220       .  S
In523       O526   2.284       .  S
In523       O534   2.258       .  S
In523       O528   2.246       .  S
In523       O530   2.257       .  S
In523       O531   2.263       .  S
In523       O532   2.233       .  S
In523       O535   2.212       .  S
C524        O530   1.263       .  A
C524        O532   1.258       .  A
C524        C685   1.475       .  S
O525        C533   1.257       .  A
O526        C533   1.265       .  A
C527        O534   1.264       .  A
C527        O528   1.263       .  A
C527        C676   1.489       .  S
C529        O531   1.269       .  A
C529        O535   1.262       .  A
C529        C664   1.493       .  S
C533       C1585   1.483   1_455  S
In536       O538   2.223       .  S
In536       O539   2.288       .  S
In536       O547   2.246       .  S
In536       O541   2.262       .  S
In536       O543   2.268       .  S
In536       O544   2.258       .  S
In536       O545   2.223       .  S
In536       O548   2.252       .  S
C537        O543   1.263       .  A
C537        O545   1.257       .  A
C537        C688   1.475       .  S
O538        C546   1.259       .  A
O539        C546   1.266       .  A
C540        O547   1.263       .  A
C540        O541   1.265       .  A
C540        C640   1.493       .  S
C542        O544   1.267       .  A
C542        O548   1.264       .  A
C542        C625   1.501       .  S
In549       O551   2.205       .  S
In549       O552   2.269       .  S
In549       O560   2.247       .  S
In549       O554   2.240       .  S
In549       O556   2.261       .  S
In549       O557   2.275       .  S
In549       O558   2.220       .  S
In549       O561   2.213       .  S
C550        O556   1.266       .  A
C550        O558   1.260       .  A
C550        C613   1.484       .  S
O551        C559   1.262       .  A
O552        C559   1.269       .  A
C553        O560   1.265       .  A
C553        O554   1.265       .  A
C553        C637   1.485       .  S
C555        O557   1.268       .  A
C555        O561   1.260       .  A
C555        C700   1.493       .  S
In562       O564   2.239       .  S
In562       O565   2.277       .  S
In562       O573   2.235       .  S
In562       O567   2.254       .  S
In562       O569   2.263       .  S
In562       O570   2.280       .  S
In562       O571   2.219       .  S
In562       O574   2.239       .  S
C563        O569   1.267       .  A
C563        O571   1.261       .  A
C563        C616   1.488       .  S
O564        C572   1.262       .  A
O565        C572   1.269       .  A
C566        O573   1.265       .  A
C566        O567   1.267       .  A
C566        C880   1.490       .  S
C568        O570   1.269       .  A
C568        O574   1.261       .  A
C568        C820   1.500       .  S
C572        C628   1.490       .  S
In575       O577   2.218       .  S
In575       O578   2.275       .  S
In575       O586   2.253       .  S
In575       O580   2.251       .  S
In575       O582   2.262       .  S
In575       O583   2.267       .  S
In575       O584   2.223       .  S
In575       O587   2.216       .  S
C576        O582   1.266       .  A
C576        O584   1.260       .  A
C576        C601   1.487       .  S
O577        C585   1.259       .  A
O578        C585   1.266       .  A
C579        O586   1.264       .  A
C579        O580   1.264       .  A
C579        C673   1.483       .  S
C581        O583   1.268       .  A
C581        O587   1.261       .  A
C581        C649   1.490       .  S
C585       C1600   1.481   1_455  S
In588       O590   2.225       .  S
In588       O591   2.271       .  S
In588       O599   2.240       .  S
In588       O593   2.256       .  S
In588       O595   2.273       .  S
In588       O596   2.273       .  S
In588       O597   2.215       .  S
In588       O600   2.229       .  S
C589        O595   1.264       .  A
C589        O597   1.259       .  A
C589        C604   1.475       .  S
O590        C598   1.263       .  A
O591        C598   1.267       .  A
C592        O599   1.262       .  A
C592        O593   1.264       .  A
C592        C721   1.486       .  S
C594        O596   1.265       .  A
C594        O600   1.258       .  A
C594        C748   1.490       .  S
C598        C661   1.485       .  S
C601        C602   1.406       .  A
C601        C606   1.416       .  A
C602        H607   1.085       .  S
C603        C604   1.407   1_554  A
C603        C610   1.445       .  S
C604        C605   1.403       .  A
C605        H608   1.085       .  S
C606        C609   1.443       .  S
C609        N611   1.157   1_554  T
C610        N612   1.157       .  T
C613        C614   1.405       .  A
C613        C618   1.414       .  A
C614       C1503   1.405       .  A
C614        H619   1.085       .  S
C615       C1502   1.406   1_455  A
C615        C616   1.414       .  A
C615        C622   1.443       .  S
C616        C617   1.406       .  A
C617       C1506   1.398   1_455  A
C617        H620   1.085       .  S
C618       C1505   1.398       .  A
C618        C621   1.445       .  S
C621        N623   1.157       .  T
C622        N624   1.157       .  T
C625        C626   1.409       .  A
C625        C630   1.418       .  A
C626        C627   1.406       .  A
C626        H631   1.085       .  S
C627        C628   1.413       .  A
C627        C634   1.445       .  S
C628        C629   1.403       .  A
C629        C630   1.408       .  A
C629        H632   1.086       .  S
C630        C633   1.443       .  S
C633        N635   1.157       .  T
C634        N636   1.158       .  T
C637        C638   1.403       .  A
C637        C642   1.412       .  A
C638        C639   1.403       .  A
C638        H643   1.086       .  S
C639        C640   1.418       .  A
C639        C646   1.444       .  S
C640        C641   1.407       .  A
C641        C642   1.405       .  A
C641        H644   1.085       .  S
C642        C645   1.444       .  S
C645        N647   1.157       .  T
C649        C650   1.408       .  A
C649        C654   1.416       .  A
C650        C651   1.408       .  A
C650        H655   1.084       .  S
C651        C652   1.412       .  A
C651        C658   1.443       .  S
C652        C653   1.401       .  A
C653        C654   1.398       .  A
C654        C657   1.445       .  S
C658        N660   1.157       .  T
C661        C662   1.400   1_556  A
C661        C666   1.413       .  A
C662        C663   1.398       .  A
C662        H667   1.086       .  S
C663        C664   1.418       .  A
C663        C670   1.445       .  S
C664        C665   1.409       .  A
C665        C666   1.408   1_554  A
C665        H668   1.084       .  S
C666        C669   1.443       .  S
C669        N671   1.157       .  T
C670        N672   1.157       .  T
C673        C674   1.403       .  A
C673        C678   1.411       .  A
C674        C675   1.405       .  A
C674        H679   1.085       .  S
C675        C676   1.416       .  A
C675        C682   1.444       .  S
C676        C677   1.406       .  A
C677        C678   1.405       .  A
C677        H680   1.085       .  S
C678        C681   1.444       .  S
C681       N1571   1.157       .  T
C682        N684   1.157       .  T
N683       C1569   1.157       .  T
C685        C686   1.401       .  A
C685        C690   1.413       .  A
C686        C687   1.399       .  A
C686        H691   1.085       .  S
C687        C688   1.413       .  A
C687        C694   1.445       .  S
C688        C689   1.403       .  A
C689        C690   1.402       .  A
C689        H692   1.085       .  S
C690        C693   1.445       .  S
C693        N695   1.158       .  T
C694        N696   1.157       .  T
C697       C1421   1.483       .  S
C697        C698   1.405       .  A
C697       C1590   1.410       .  A
C698        C699   1.410       .  A
C698        H703   1.084       .  S
C699        C700   1.417       .  A
C699        C706   1.443       .  S
C700        C701   1.407       .  A
C701       C1590   1.397       .  A
C701        H704   1.084       .  S
C702       C1585   1.410       .  A
C702       C1589   1.396       .  A
C702        C705   1.446       .  S
C705        N707   1.157   1_655  T
C706        N708   1.157       .  T
C709        C710   1.409       .  A
C709        C714   1.419       .  A
C710        C711   1.407   1_556  A
C710        H715   1.085       .  S
C711        C712   1.412       .  A
C711       C1606   1.444       .  S
C712       C1473   1.480       .  S
C712        C713   1.399       .  A
C713        C714   1.397   1_554  A
C713        H716   1.086       .  S
C714        C717   1.444       .  S
C717        N719   1.157       .  T
C718       C1599   1.444       .  S
C718        N720   1.157       .  T
C721        C722   1.403       .  A
C721        C726   1.414       .  A
C722        C723   1.400       .  A
C722        H727   1.085       .  S
C723        C724   1.415       .  A
C723        C730   1.444       .  S
C724        C725   1.407       .  A
C725        C726   1.405       .  A
C725        H728   1.084       .  S
C726        C729   1.444       .  S
C729        N731   1.157       .  T
C730        N732   1.157       .  T
C733        C734   1.402       .  A
C733       C1626   1.412   1_455  A
C734       C1623   1.402       .  A
C734        H739   1.084       .  S
C735       C1622   1.403       .  A
C735        C736   1.414       .  A
C735       C1630   1.445       .  S
C736        C737   1.402       .  A
C737        C738   1.401       .  A
C737        H740   1.084       .  S
C738       C1621   1.412       .  A
C738        C741   1.444       .  S
C741        N743   1.157       .  T
C742       C1623   1.445       .  S
C742        N744   1.158       .  T
C745        C746   1.403       .  A
C746        C747   1.401       .  A
C746        H751   1.083       .  S
C747        C748   1.417       .  A
C747        C754   1.445       .  S
C748        C749   1.407       .  A
C749        H752   1.083       .  S
C750        C753   1.443       .  S
C753        N755   1.157   1_545  T
C754        N756   1.157       .  T
C757        C758   1.409       .  A
C757        C762   1.418       .  A
C758        C759   1.408       .  A
C758        H763   1.083       .  S
C759        C760   1.411       .  A
C759        C766   1.443       .  S
C760        C761   1.401       .  A
C761        C762   1.397       .  A
C761        H764   1.084       .  S
C762        C765   1.445       .  S
C765        N767   1.157       .  T
C766        N768   1.157       .  T
C769        C770   1.403       .  A
C769        C774   1.414       .  A
C770        C771   1.402       .  A
C770        H775   1.085       .  S
C771        C772   1.417       .  A
C771        C778   1.444       .  S
C772        C773   1.406       .  A
C773        C774   1.405       .  A
C773        H776   1.085       .  S
C774        C777   1.444       .  S
C777        N779   1.157       .  T
C781        C782   1.404       .  A
C781        C786   1.414       .  A
C782        C783   1.403       .  A
C782        H787   1.085       .  S
C783        C784   1.411       .  A
C783        C790   1.446       .  S
C784        C785   1.400       .  A
C785        C786   1.401       .  A
C785        H788   1.085       .  S
C786        C789   1.445       .  S
C789        N791   1.157       .  T
C790        N792   1.158       .  T
C793       C1369   1.484   1_455  S
C793        C794   1.404       .  A
C793        C798   1.410       .  A
C794        C795   1.411       .  A
C794       H1687   1.088       .  S
C795        C796   1.420       .  A
C795        C802   1.443       .  S
C796        C797   1.406       .  A
C797        C798   1.399       .  A
C797        H800   1.088       .  S
C798        C801   1.445       .  S
H799       C1682   1.088       .  S
C801        N803   1.157       .  T
C802        N804   1.157       .  T
C805        C806   1.408       .  A
C805        C810   1.417       .  A
C806        C807   1.400       .  A
C806        H811   1.084       .  S
C807        C808   1.409       .  A
C808        C809   1.404       .  A
C809        C810   1.408       .  A
C809        H812   1.084       .  S
C810        C813   1.443       .  S
C813        N815   1.157       .  T
C814        N816   1.157       .  T
C817       C1356   1.489   1_455  S
C817        C818   1.402       .  A
C817        C822   1.414       .  A
C818        C819   1.404       .  A
C818        H823   1.085       .  S
C819        C820   1.420       .  A
C819        C826   1.444       .  S
C820        C821   1.408       .  A
C821        C822   1.409       .  A
C821        H824   1.085       .  S
C822        C825   1.444       .  S
C825        N827   1.157   1_455  T
C826        N828   1.157       .  T
C829        C830   1.403       .  A
C829        C834   1.410       .  A
C830        C831   1.407       .  A
C830        H835   1.085       .  S
C831        C832   1.418       .  A
C831        C838   1.444       .  S
C832        C833   1.408       .  A
C833        C834   1.403       .  A
C833        H836   1.085       .  S
C834        C837   1.444       .  S
C837       N1727   1.157       .  T
C838        N840   1.157       .  T
N839       C1725   1.157   1_455  T
C841        C842   1.402       .  A
C841        C846   1.412       .  A
C842        C843   1.396       .  A
C843        C844   1.419       .  A
C843        C850   1.445       .  S
C844        C845   1.407       .  A
C845        C846   1.406       .  A
C845        H848   1.085       .  S
C846        C849   1.443       .  S
C849        N851   1.157       .  T
C850        N852   1.158       .  T
C853        C854   1.406       .  A
C853        C858   1.417       .  A
C854        H859   1.085       .  S
C855        C856   1.409       .  A
C855        C862   1.446       .  S
C856        C857   1.407       .  A
C857        H860   1.085       .  S
C858        C861   1.443       .  S
C861        N863   1.157       .  T
C862        N864   1.157       .  T
C865        C866   1.408       .  A
C865        C870   1.417       .  A
C866        C867   1.410       .  A
C866        H871   1.085       .  S
C867        C868   1.415       .  A
C867        C874   1.443       .  S
C868        C869   1.403       .  A
C869        C870   1.397       .  A
C869        H872   1.086       .  S
C870        C873   1.445       .  S
C873        N875   1.157       .  T
C874        N876   1.157       .  T
C877        C878   1.404       .  A
C877        C882   1.412       .  A
C878        C879   1.407       .  A
C878        H883   1.085       .  S
C879        C880   1.416       .  A
C879        C886   1.443       .  S
C880        C881   1.406       .  A
C881        C882   1.401       .  A
C881        H884   1.085       .  S
C882        C885   1.445       .  S
C885        N887   1.157       .  T
C886        N888   1.157       .  T
In889       O891   2.210       .  S
In889       O892   2.270       .  S
In889       O900   2.232       .  S
In889       O894   2.260       .  S
In889       O896   2.269       .  S
In889       O897   2.269       .  S
In889       O898   2.222       .  S
In889       O901   2.209       .  S
C890        O896   1.266       .  A
C890        O898   1.261       .  A
C890       C1300   1.480       .  S
O891        C899   1.264       .  A
O892        C899   1.269       .  A
C893        O900   1.262       .  A
C893        O894   1.266       .  A
C893       C1321   1.484       .  S
C895        O897   1.267       .  A
C895        O901   1.258       .  A
C895       C1288   1.489       .  S
C899       C1312   1.488       .  S
In902       O904   2.246       .  S
In902       O905   2.272       .  S
In902       O913   2.246       .  S
In902       O907   2.248       .  S
In902       O909   2.283       .  S
In902       O910   2.269       .  S
In902       O911   2.202       .  S
In902       O914   2.233       .  S
C903        O909   1.266       .  A
C903        O911   1.258       .  A
C903       C1297   1.489       .  S
O904        C912   1.261       .  A
O905        C912   1.265       .  A
C906        O913   1.265       .  A
C906        O907   1.265       .  A
C906       C1273   1.482       .  S
C908        O910   1.266       .  A
C908        O914   1.260       .  A
C908       C1249   1.492       .  S
In915       O917   2.220       .  S
In915       O918   2.288       .  S
In915       O926   2.248       .  S
In915       O920   2.261       .  S
In915       O922   2.274       .  S
In915       O923   2.274       .  S
In915       O924   2.236       .  S
In915       O927   2.228       .  S
C916        O922   1.265       .  A
C916        O924   1.259       .  A
C916       C1225   1.483       .  S
O917        C925   1.259       .  A
O918        C925   1.266       .  A
C919        O926   1.264       .  A
C919        O920   1.265       .  A
C919       C1276   1.494       .  S
C921        O923   1.267       .  A
C921        O927   1.261       .  A
C921       C1309   1.494       .  S
In928       O930   2.221       .  S
In928       O931   2.275       .  S
In928       O939   2.246       .  S
In928       O933   2.252       .  S
In928       O935   2.231       .  S
In928       O936   2.275       .  S
In928       O937   2.266       .  S
In928       O940   2.208       .  S
C929        O935   1.259       .  A
C929        O937   1.264       .  A
C929       C1228   1.478       .  S
O930        C938   1.260       .  A
O931        C938   1.266       .  A
C932        O939   1.264       .  A
C932        O933   1.264       .  A
C932       C1213   1.487       .  S
C934        O936   1.268       .  A
C934        O940   1.260       .  A
C934       C1201   1.494       .  S
C938       C1696   1.481       .  S
In941       O943   2.279       .  S
In941       O944   2.230       .  S
In941       O952   2.238       .  S
In941       O946   2.246       .  S
In941       O948   2.265       .  S
In941       O949   2.272       .  S
In941       O950   2.233       .  S
In941       O953   2.237       .  S
C942        O948   1.262       .  A
C942        O950   1.257       .  A
C942       C1177   1.475       .  S
O943        C951   1.266       .  A
O944        C951   1.257       .  A
C945        O952   1.265       .  A
C945        O946   1.266       .  A
C945       C1216   1.489       .  S
C947        O949   1.267       .  A
C947        O953   1.263       .  A
C947       C1240   1.498       .  S
C951       C1633   1.483       .  S
In954       O956   2.219       .  S
In954       O957   2.289       .  S
In954       O965   2.255       .  S
In954       O959   2.249       .  S
In954       O961   2.258       .  S
In954       O962   2.263       .  S
In954       O963   2.235       .  S
In954       O966   2.213       .  S
C955        O961   1.263       .  A
C955        O963   1.259       .  A
C955       C1180   1.476       .  S
O956        C964   1.256       .  A
O957        C964   1.265       .  A
C958        O965   1.263       .  A
C958        O959   1.262       .  A
C958       C1168   1.481       .  S
C960        O962   1.269       .  A
C960        O966   1.262       .  A
C960       C1153   1.493       .  S
C964       C1204   1.485       .  S
In967       O969   2.217       .  S
In967       O970   2.287       .  S
In967       O978   2.253       .  S
In967       O972   2.250       .  S
In967       O974   2.251       .  S
In967       O975   2.262       .  S
In967       O976   2.245       .  S
In967       O979   2.209       .  S
C968        O974   1.263       .  A
C968        O976   1.259       .  A
C968       C1129   1.476       .  S
O969        C977   1.257       .  A
O970        C977   1.265       .  A
C971        O978   1.263       .  A
C971        O972   1.263       .  A
C971       C1120   1.488       .  S
C973        O975   1.269       .  A
C973        O979   1.262       .  A
C973       C1108   1.492       .  S
In980       O982   2.224       .  S
In980       O983   2.287       .  S
In980       O991   2.244       .  S
In980       O985   2.262       .  S
In980       O987   2.271       .  S
In980       O988   2.261       .  S
In980       O989   2.222       .  S
In980       O992   2.250       .  S
C981        O987   1.263       .  A
C981        O989   1.257       .  A
C981       C1132   1.477       .  S
O982        C990   1.258       .  A
O983        C990   1.265       .  A
C984        O991   1.263       .  A
C984        O985   1.265       .  A
C984       C1084   1.493       .  S
C986        O988   1.267       .  A
C986        O992   1.264       .  A
C986       C1069   1.500       .  S
C990       C1540   1.484   1_545  S
In993       O995   2.209       .  S
In993       O996   2.265       .  S
In993      O1004   2.250       .  S
In993       O998   2.241       .  S
In993      O1000   2.267       .  S
In993      O1001   2.279       .  S
In993      O1002   2.223       .  S
In993      O1005   2.218       .  S
C994       O1000   1.266       .  A
C994       O1002   1.260       .  A
C994       C1057   1.484       .  S
O995       C1003   1.262       .  A
O996       C1003   1.269       .  A
C997       O1004   1.264       .  A
C997        O998   1.265       .  A
C997       C1081   1.485       .  S
C999       O1001   1.267       .  A
C999       O1005   1.260       .  A
C999       C1144   1.494       .  S
C1003      C1729   1.483   1_545  S
In1006     O1008   2.236       .  S
In1006     O1009   2.277       .  S
In1006     O1017   2.238       .  S
In1006     O1011   2.250       .  S
In1006     O1013   2.266       .  S
In1006     O1014   2.279       .  S
In1006     O1015   2.220       .  S
In1006     O1018   2.237       .  S
C1007      O1013   1.267       .  A
C1007      O1015   1.261       .  A
C1007      C1060   1.489       .  S
O1008      C1016   1.262       .  A
O1009      C1016   1.269       .  A
C1010      O1017   1.265       .  A
C1010      O1011   1.266       .  A
C1010      C1324   1.489       .  S
C1012      O1014   1.269       .  A
C1012      O1018   1.260       .  A
C1012      C1264   1.496       .  S
C1016      C1072   1.490       .  S
In1019     O1021   2.213       .  S
In1019     O1022   2.275       .  S
In1019     O1030   2.255       .  S
In1019     O1024   2.247       .  S
In1019     O1026   2.264       .  S
In1019     O1027   2.270       .  S
In1019     O1028   2.222       .  S
In1019     O1031   2.212       .  S
C1020      O1026   1.266       .  A
C1020      O1028   1.260       .  A
C1020      C1045   1.489       .  S
O1021      C1029   1.259       .  A
O1022      C1029   1.267       .  A
C1023      O1030   1.264       .  A
C1023      O1024   1.264       .  A
C1023      C1117   1.482       .  S
C1025      O1027   1.269       .  A
C1025      O1031   1.261       .  A
C1025      C1093   1.492       .  S
In1032     O1034   2.227       .  S
In1032     O1035   2.276       .  S
In1032     O1043   2.243       .  S
In1032     O1037   2.249       .  S
In1032     O1039   2.268       .  S
In1032     O1040   2.266       .  S
In1032     O1041   2.215       .  S
In1032     O1044   2.234       .  S
C1033      O1039   1.264       .  A
C1033      O1041   1.259       .  A
C1033      C1048   1.475       .  S
O1034      C1042   1.261       .  A
O1035      C1042   1.266       .  A
C1036      O1043   1.263       .  A
C1036      O1037   1.264       .  A
C1036      C1165   1.485       .  S
C1038      O1040   1.266       .  A
C1038      O1044   1.260       .  A
C1038      C1192   1.490       .  S
C1042      C1105   1.484       .  S
C1045      C1046   1.406       .  A
C1045      C1050   1.417       .  A
C1046      C1491   1.396       .  A
C1046      H1051   1.085       .  S
C1047      C1490   1.396   1_545  A
C1047      C1048   1.409   1_554  A
C1047      C1054   1.446       .  S
C1048      C1049   1.403       .  A
C1049      C1494   1.407   1_546  A
C1049      H1052   1.085       .  S
C1050      C1493   1.408   1_554  A
C1050      C1053   1.443       .  S
C1053      N1055   1.157       .  T
C1054      N1056   1.157       .  T
C1057      C1058   1.405       .  A
C1057      C1062   1.413       .  A
C1058      H1063   1.085       .  S
C1059      C1060   1.415       .  A
C1059      C1066   1.443       .  S
C1060      C1061   1.405       .  A
C1061      H1064   1.085       .  S
C1062      C1065   1.445       .  S
C1065      N1067   1.157       .  T
C1066      N1068   1.157       .  T
C1069      C1070   1.409       .  A
C1069      C1074   1.418       .  A
C1070      C1071   1.405       .  A
C1070      H1075   1.085       .  S
C1071      C1072   1.413       .  A
C1071      C1078   1.445       .  S
C1072      C1073   1.404       .  A
C1073      C1074   1.409       .  A
C1073      H1076   1.086       .  S
C1074      C1077   1.443       .  S
C1077      N1079   1.157       .  T
C1078      N1080   1.157       .  T
C1081      C1082   1.403       .  A
C1081      C1086   1.411       .  A
C1082      C1083   1.404       .  A
C1082      H1087   1.086       .  S
C1083      C1084   1.418       .  A
C1083      C1090   1.444       .  S
C1084      C1085   1.407       .  A
C1085      C1086   1.405       .  A
C1085      H1088   1.085       .  S
C1086      C1089   1.444       .  S
C1089      N1091   1.157       .  T
C1090      N1536   1.157   1_545  T
N1092      C1534   1.157       .  T
C1093      C1094   1.409       .  A
C1093      C1098   1.417       .  A
C1094      C1095   1.409       .  A
C1094      H1099   1.084       .  S
C1095      C1096   1.413       .  A
C1095      C1102   1.443       .  S
C1096      C1434   1.484       .  S
C1096      C1097   1.401       .  A
C1097      C1098   1.397       .  A
C1097      H1544   1.086       .  S
C1098      C1101   1.445       .  S
H1100      C1541   1.086       .  S
C1101      N1547   1.157       .  T
C1102      N1104   1.157       .  T
N1103      C1545   1.157       .  T
C1105      C1106   1.401       .  A
C1105      C1110   1.413       .  A
C1106      C1107   1.398   1_556  A
C1106      H1111   1.086       .  S
C1107      C1108   1.418       .  A
C1107      C1114   1.445       .  S
C1108      C1109   1.408       .  A
C1109      C1110   1.407   1_554  A
C1109      H1112   1.084       .  S
C1110      C1113   1.443       .  S
C1113      N1115   1.157       .  T
C1114      N1116   1.157       .  T
C1117      C1118   1.403       .  A
C1117      C1122   1.411       .  A
C1118      C1119   1.405       .  A
C1118      H1123   1.085       .  S
C1119      C1120   1.416       .  A
C1119      C1126   1.444       .  S
C1120      C1121   1.405       .  A
C1121      C1122   1.404       .  A
C1121      H1124   1.085       .  S
C1122      C1125   1.444       .  S
C1126      N1128   1.157       .  T
C1129      C1130   1.400       .  A
C1129      C1134   1.413       .  A
C1130      C1131   1.398       .  A
C1130      H1135   1.085       .  S
C1131      C1132   1.412       .  A
C1131      C1138   1.445       .  S
C1132      C1133   1.404       .  A
C1133      C1134   1.404       .  A
C1133      H1136   1.085       .  S
C1134      C1137   1.445       .  S
C1137      N1139   1.158       .  T
C1138      N1140   1.157       .  T
C1141      C1142   1.405       .  A
C1142      C1143   1.411       .  A
C1142      H1147   1.084       .  S
C1143      C1144   1.417       .  A
C1143      C1150   1.443       .  S
C1144      C1145   1.407       .  A
C1145      H1148   1.084       .  S
C1146      C1149   1.446       .  S
C1149      N1151   1.157       .  T
C1150      N1152   1.157       .  T
C1153      C1154   1.409       .  A
C1153      C1158   1.419       .  A
C1154      C1155   1.408   1_556  A
C1154      H1159   1.085       .  S
C1155      C1156   1.412       .  A
C1156      C1157   1.400       .  A
C1157      C1158   1.397   1_554  A
C1157      H1160   1.086       .  S
C1158      C1161   1.444       .  S
C1161      N1163   1.157       .  T
C1162      N1164   1.157       .  T
C1165      C1166   1.404       .  A
C1165      C1170   1.415       .  A
C1166      C1167   1.402       .  A
C1166      H1171   1.084       .  S
C1167      C1168   1.411       .  A
C1167      C1174   1.444       .  S
C1168      C1169   1.404       .  A
C1169      C1170   1.405       .  A
C1169      H1172   1.085       .  S
C1170      C1173   1.444       .  S
C1173      N1175   1.157       .  T
C1174      N1176   1.157       .  T
C1177      C1178   1.402       .  A
C1178      H1183   1.084       .  S
C1179      C1180   1.413   1_455  A
C1180      C1181   1.402       .  A
C1181      C1182   1.401       .  A
C1181      H1184   1.084       .  S
C1182      C1185   1.444       .  S
C1185      N1187   1.157       .  T
C1186      N1188   1.157       .  T
C1189      C1395   1.481   1_545  S
C1189      C1190   1.402       .  A
C1189      C1638   1.411       .  A
C1190      C1191   1.400       .  A
C1190      H1195   1.083       .  S
C1191      C1192   1.416       .  A
C1191      C1198   1.444       .  S
C1192      C1193   1.408       .  A
C1193      C1638   1.407       .  A
C1193      H1196   1.083       .  S
C1194      C1633   1.411       .  A
C1194      C1637   1.407       .  A
C1194      C1197   1.443       .  S
C1197      N1199   1.157       .  T
C1198      N1200   1.157       .  T
C1201      C1202   1.410       .  A
C1201      C1206   1.418       .  A
C1202      C1203   1.410       .  A
C1202      H1207   1.082       .  S
C1203      C1204   1.412       .  A
C1203      C1210   1.443       .  S
C1204      C1205   1.401       .  A
C1205      C1206   1.397       .  A
C1205      H1208   1.083       .  S
C1206      C1209   1.445       .  S
C1209      N1211   1.157       .  T
C1210      N1212   1.157       .  T
C1213      C1214   1.404       .  A
C1213      C1218   1.414       .  A
C1214      C1215   1.402       .  A
C1214      H1219   1.085       .  S
C1215      C1216   1.416       .  A
C1215      C1222   1.444       .  S
C1216      C1217   1.405       .  A
C1217      C1218   1.404       .  A
C1217      H1220   1.085       .  S
C1218      C1221   1.444       .  S
C1221      N1223   1.157       .  T
C1222      N1668   1.157       .  T
N1224      C1666   1.157   1_545  T
C1225      C1226   1.405       .  A
C1225      C1230   1.414       .  A
C1226      C1227   1.405       .  A
C1226      H1231   1.085       .  S
C1227      C1228   1.412       .  A
C1227      C1234   1.445       .  S
C1228      C1229   1.401       .  A
C1229      C1230   1.402       .  A
C1229      H1232   1.085       .  S
C1230      C1233   1.444       .  S
C1233      N1235   1.157       .  T
C1234      N1236   1.158       .  T
C1237      C1238   1.404       .  A
C1237      C1242   1.411       .  A
C1238      C1239   1.410       .  A
C1239      C1240   1.419       .  A
C1239      C1246   1.442       .  S
C1240      C1241   1.407       .  A
C1241      C1242   1.400       .  A
C1241      H1244   1.088       .  S
C1242      C1245   1.445       .  S
C1245      N1247   1.157       .  T
C1246      N1248   1.157       .  T
C1249      C1250   1.408       .  A
C1249      C1254   1.417       .  A
C1250      C1251   1.400       .  A
C1250      H1255   1.084       .  S
C1251      C1252   1.410       .  A
C1251      C1702   1.446       .  S
C1252      C1382   1.480   1_545  S
C1252      C1253   1.403       .  A
C1253      C1254   1.407       .  A
C1253      H1256   1.084       .  S
C1254      C1257   1.443       .  S
C1257      N1259   1.157       .  T
C1258      C1695   1.446       .  S
C1258      N1260   1.157       .  T
C1261      C1262   1.401       .  A
C1261      C1266   1.414       .  A
C1262      C1263   1.404       .  A
C1262      H1267   1.085       .  S
C1263      C1264   1.419       .  A
C1263      C1270   1.444       .  S
C1264      C1265   1.407       .  A
C1265      C1266   1.408       .  A
C1265      H1268   1.085       .  S
C1266      C1269   1.444       .  S
C1269      N1271   1.157       .  T
C1270      N1272   1.157       .  T
C1273      C1274   1.403       .  A
C1273      C1278   1.410       .  A
C1274      C1275   1.406       .  A
C1274      H1279   1.085       .  S
C1275      C1276   1.418       .  A
C1275      C1282   1.443       .  S
C1276      C1277   1.408       .  A
C1277      C1278   1.403       .  A
C1277      H1280   1.085       .  S
C1278      C1281   1.444       .  S
C1282      N1284   1.157       .  T
C1285      C1447   1.484       .  S
C1285      C1286   1.402       .  A
C1285      C1290   1.413       .  A
C1286      C1287   1.396       .  A
C1286      H1735   1.086       .  S
C1287      C1288   1.418       .  A
C1287      C1294   1.446       .  S
C1288      C1289   1.407       .  A
C1289      C1290   1.406       .  A
C1289      H1292   1.085       .  S
C1290      C1293   1.443       .  S
H1291      C1730   1.086       .  S
C1293      N1295   1.157       .  T
C1294      N1296   1.158       .  T
C1297      C1298   1.406       .  A
C1297      C1302   1.416       .  A
C1298      C1743   1.393   1_545  A
C1298      H1303   1.085       .  S
C1299      C1742   1.394       .  A
C1299      C1300   1.409       .  A
C1299      C1306   1.446       .  S
C1300      C1301   1.406       .  A
C1301      C1746   1.410       .  A
C1301      H1304   1.085       .  S
C1302      C1745   1.410   1_545  A
C1302      C1305   1.443       .  S
C1305      N1307   1.158       .  T
C1306      N1308   1.157       .  T
C1309      C1310   1.409       .  A
C1309      C1314   1.417       .  A
C1310      C1311   1.410       .  A
C1310      H1315   1.085       .  S
C1311      C1312   1.415       .  A
C1311      C1318   1.443       .  S
C1312      C1313   1.402       .  A
C1313      C1314   1.396       .  A
C1313      H1316   1.086       .  S
C1314      C1317   1.444       .  S
C1317      N1319   1.157       .  T
C1318      N1320   1.157       .  T
C1321      C1322   1.404       .  A
C1321      C1326   1.413       .  A
C1322      C1323   1.406       .  A
C1322      H1327   1.085       .  S
C1323      C1324   1.416       .  A
C1323      C1330   1.443       .  S
C1324      C1325   1.405       .  A
C1325      C1326   1.401       .  A
C1325      H1328   1.085       .  S
C1326      C1329   1.445       .  S
C1329      N1331   1.157       .  T
C1330      N1332   1.157       .  T
In1333     O1335   2.211       .  S
In1333     O1336   2.275       .  S
In1333     O1344   2.231       .  S
In1333     O1338   2.259       .  S
In1333     O1340   2.266       .  S
In1333     O1341   2.271       .  S
In1333     O1342   2.219       .  S
In1333     O1345   2.209       .  S
C1334      O1340   1.266       .  A
C1334      O1342   1.262       .  A
C1334      C1744   1.480       .  S
O1335      C1343   1.263       .  A
O1336      C1343   1.269       .  A
C1337      O1344   1.262       .  A
C1337      O1338   1.266       .  A
C1337      C1765   1.482       .  S
C1339      O1341   1.267       .  A
C1339      O1345   1.258       .  A
C1339      C1732   1.490       .  S
C1343      C1756   1.490       .  S
In1346     O1348   2.245       .  S
In1346     O1349   2.277       .  S
In1346     O1357   2.251       .  S
In1346     O1351   2.253       .  S
In1346     O1353   2.278       .  S
In1346     O1354   2.276       .  S
In1346     O1355   2.211       .  S
In1346     O1358   2.232       .  S
C1347      O1353   1.266       .  A
C1347      O1355   1.258       .  A
C1347      C1741   1.490       .  S
O1348      C1356   1.261       .  A
O1349      C1356   1.266       .  A
C1350      O1357   1.265       .  A
C1350      O1351   1.265       .  A
C1350      C1717   1.484       .  S
C1352      O1354   1.266       .  A
C1352      O1358   1.260       .  A
C1352      C1693   1.494       .  S
In1359     O1361   2.217       .  S
In1359     O1362   2.289       .  S
In1359     O1370   2.252       .  S
In1359     O1364   2.255       .  S
In1359     O1366   2.270       .  S
In1359     O1367   2.274       .  S
In1359     O1368   2.228       .  S
In1359     O1371   2.229       .  S
C1360      O1366   1.264       .  A
C1360      O1368   1.259       .  A
C1360      C1669   1.481       .  S
O1361      C1369   1.259       .  A
O1362      C1369   1.266       .  A
C1363      O1370   1.264       .  A
C1363      O1364   1.264       .  A
C1363      C1720   1.495       .  S
C1365      O1367   1.267       .  A
C1365      O1371   1.261       .  A
C1365      C1753   1.493       .  S
In1372     O1374   2.222       .  S
In1372     O1375   2.270       .  S
In1372     O1383   2.244       .  S
In1372     O1377   2.249       .  S
In1372     O1379   2.224       .  S
In1372     O1380   2.271       .  S
In1372     O1381   2.264       .  S
In1372     O1384   2.209       .  S
C1373      O1379   1.258       .  A
C1373      O1381   1.264       .  A
C1373      C1672   1.473       .  S
O1374      C1382   1.259       .  A
O1375      C1382   1.265       .  A
C1376      O1383   1.264       .  A
C1376      O1377   1.264       .  A
C1376      C1657   1.486       .  S
C1378      O1380   1.268       .  A
C1378      O1384   1.260       .  A
C1378      C1645   1.491       .  S
In1385     O1387   2.278       .  S
In1385     O1388   2.225       .  S
In1385     O1396   2.245       .  S
In1385     O1390   2.252       .  S
In1385     O1392   2.273       .  S
In1385     O1393   2.273       .  S
In1385     O1394   2.231       .  S
In1385     O1397   2.235       .  S
C1386      O1392   1.262       .  A
C1386      O1394   1.256       .  A
C1386      C1621   1.478       .  S
O1387      C1395   1.265       .  A
O1388      C1395   1.257       .  A
C1389      O1396   1.264       .  A
C1389      O1390   1.266       .  A
C1389      C1660   1.491       .  S
C1391      O1393   1.267       .  A
C1391      O1397   1.263       .  A
C1391      C1684   1.497       .  S
In1398     O1400   2.217       .  S
In1398     O1401   2.277       .  S
In1398     O1409   2.239       .  S
In1398     O1403   2.254       .  S
In1398     O1405   2.262       .  S
In1398     O1406   2.269       .  S
In1398     O1407   2.228       .  S
In1398     O1410   2.216       .  S
C1399      O1405   1.264       .  A
C1399      O1407   1.258       .  A
C1399      C1624   1.479       .  S
O1400      C1408   1.258       .  A
O1401      C1408   1.266       .  A
C1402      O1409   1.263       .  A
C1402      O1403   1.265       .  A
C1402      C1612   1.489       .  S
C1404      O1406   1.268       .  A
C1404      O1410   1.261       .  A
C1404      C1597   1.493       .  S
C1408      C1648   1.481       .  S
In1411     O1413   2.221       .  S
In1411     O1414   2.283       .  S
In1411     O1422   2.257       .  S
In1411     O1416   2.246       .  S
In1411     O1418   2.257       .  S
In1411     O1419   2.263       .  S
In1411     O1420   2.233       .  S
In1411     O1423   2.212       .  S
C1412      O1418   1.263       .  A
C1412      O1420   1.258       .  A
C1412      C1573   1.475       .  S
O1413      C1421   1.257       .  A
O1414      C1421   1.265       .  A
C1415      O1422   1.264       .  A
C1415      O1416   1.263       .  A
C1415      C1564   1.489       .  S
C1417      O1419   1.269       .  A
C1417      O1423   1.262       .  A
C1417      C1552   1.493       .  S
In1424     O1426   2.223       .  S
In1424     O1427   2.288       .  S
In1424     O1435   2.246       .  S
In1424     O1429   2.263       .  S
In1424     O1431   2.268       .  S
In1424     O1432   2.258       .  S
In1424     O1433   2.223       .  S
In1424     O1436   2.253       .  S
C1425      O1431   1.263       .  A
C1425      O1433   1.257       .  A
C1425      C1576   1.475       .  S
O1426      C1434   1.259       .  A
O1427      C1434   1.266       .  A
C1428      O1435   1.263       .  A
C1428      O1429   1.265       .  A
C1428      C1528   1.493       .  S
C1430      O1432   1.267       .  A
C1430      O1436   1.264       .  A
C1430      C1513   1.501       .  S
In1437     O1439   2.204       .  S
In1437     O1440   2.268       .  S
In1437     O1448   2.249       .  S
In1437     O1442   2.240       .  S
In1437     O1444   2.261       .  S
In1437     O1445   2.277       .  S
In1437     O1446   2.223       .  S
In1437     O1449   2.211       .  S
C1438      O1444   1.266       .  A
C1438      O1446   1.260       .  A
C1438      C1501   1.484       .  S
O1439      C1447   1.262       .  A
O1440      C1447   1.269       .  A
C1441      O1448   1.265       .  A
C1441      O1442   1.265       .  A
C1441      C1525   1.485       .  S
C1443      O1445   1.268       .  A
C1443      O1449   1.260       .  A
C1443      C1588   1.493       .  S
In1450     O1452   2.240       .  S
In1450     O1453   2.277       .  S
In1450     O1461   2.234       .  S
In1450     O1455   2.252       .  S
In1450     O1457   2.261       .  S
In1450     O1458   2.281       .  S
In1450     O1459   2.219       .  S
In1450     O1462   2.239       .  S
C1451      O1457   1.267       .  A
C1451      O1459   1.261       .  A
C1451      C1504   1.486       .  S
O1452      C1460   1.262       .  A
O1453      C1460   1.270       .  A
C1454      O1461   1.265       .  A
C1454      O1455   1.267       .  A
C1454      C1768   1.489       .  S
C1456      O1458   1.269       .  A
C1456      O1462   1.261       .  A
C1456      C1708   1.500       .  S
C1460      C1516   1.491       .  S
In1463     O1465   2.218       .  S
In1463     O1466   2.273       .  S
In1463     O1474   2.252       .  S
In1463     O1468   2.251       .  S
In1463     O1470   2.261       .  S
In1463     O1471   2.267       .  S
In1463     O1472   2.223       .  S
In1463     O1475   2.215       .  S
C1464      O1470   1.266       .  A
C1464      O1472   1.260       .  A
C1464      C1489   1.487       .  S
O1465      C1473   1.259       .  A
O1466      C1473   1.266       .  A
C1467      O1474   1.264       .  A
C1467      O1468   1.264       .  A
C1467      C1561   1.482       .  S
C1469      O1471   1.268       .  A
C1469      O1475   1.262       .  A
C1469      C1537   1.491       .  S
In1476     O1478   2.225       .  S
In1476     O1479   2.271       .  S
In1476     O1487   2.240       .  S
In1476     O1481   2.257       .  S
In1476     O1483   2.273       .  S
In1476     O1484   2.274       .  S
In1476     O1485   2.217       .  S
In1476     O1488   2.230       .  S
C1477      O1483   1.264       .  A
C1477      O1485   1.259       .  A
C1477      C1492   1.475       .  S
O1478      C1486   1.263       .  A
O1479      C1486   1.267       .  A
C1480      O1487   1.262       .  A
C1480      O1481   1.264       .  A
C1480      C1609   1.485       .  S
C1482      O1484   1.265       .  A
C1482      O1488   1.258       .  A
C1482      C1636   1.491       .  S
C1486      C1549   1.485       .  S
C1489      C1490   1.406       .  A
C1489      C1494   1.416       .  A
C1490      H1495   1.085       .  S
C1491      C1492   1.407   1_554  A
C1491      C1498   1.445       .  S
C1492      C1493   1.403       .  A
C1493      H1496   1.085       .  S
C1494      C1497   1.443       .  S
C1497      N1499   1.157   1_554  T
C1498      N1500   1.157       .  T
C1501      C1502   1.405       .  A
C1501      C1506   1.413       .  A
C1502      H1507   1.085       .  S
C1503      C1504   1.414       .  A
C1503      C1510   1.443       .  S
C1504      C1505   1.405       .  A
C1505      H1508   1.085       .  S
C1506      C1509   1.445       .  S
C1509      N1511   1.157       .  T
C1510      N1512   1.157       .  T
C1513      C1514   1.409       .  A
C1513      C1518   1.418       .  A
C1514      C1515   1.406       .  A
C1514      H1519   1.085       .  S
C1515      C1516   1.413       .  A
C1515      C1522   1.445       .  S
C1516      C1517   1.403       .  A
C1517      C1518   1.408       .  A
C1517      H1520   1.086       .  S
C1518      C1521   1.443       .  S
C1521      N1523   1.157       .  T
C1522      N1524   1.158       .  T
C1525      C1526   1.403       .  A
C1525      C1530   1.412       .  A
C1526      C1527   1.404       .  A
C1526      H1531   1.086       .  S
C1527      C1528   1.418       .  A
C1527      C1534   1.444       .  S
C1528      C1529   1.407       .  A
C1529      C1530   1.405       .  A
C1529      H1532   1.085       .  S
C1530      C1533   1.444       .  S
C1533      N1535   1.157       .  T
C1537      C1538   1.408       .  A
C1537      C1542   1.416       .  A
C1538      C1539   1.408       .  A
C1538      H1543   1.084       .  S
C1539      C1540   1.413       .  A
C1539      C1546   1.443       .  S
C1540      C1541   1.402       .  A
C1541      C1542   1.398       .  A
C1542      C1545   1.445       .  S
C1546      N1548   1.157       .  T
C1549      C1550   1.400   1_556  A
C1549      C1554   1.413       .  A
C1550      C1551   1.398       .  A
C1550      H1555   1.086       .  S
C1551      C1552   1.418       .  A
C1551      C1558   1.445       .  S
C1552      C1553   1.409       .  A
C1553      C1554   1.408   1_554  A
C1553      H1556   1.084       .  S
C1554      C1557   1.443       .  S
C1557      N1559   1.157       .  T
C1558      N1560   1.157       .  T
C1561      C1562   1.403       .  A
C1561      C1566   1.411       .  A
C1562      C1563   1.405       .  A
C1562      H1567   1.085       .  S
C1563      C1564   1.416       .  A
C1563      C1570   1.444       .  S
C1564      C1565   1.406       .  A
C1565      C1566   1.405       .  A
C1565      H1568   1.085       .  S
C1566      C1569   1.444       .  S
C1570      N1572   1.157       .  T
C1573      C1574   1.401       .  A
C1573      C1578   1.414       .  A
C1574      C1575   1.399       .  A
C1574      H1579   1.085       .  S
C1575      C1576   1.413       .  A
C1575      C1582   1.445       .  S
C1576      C1577   1.402       .  A
C1577      C1578   1.402       .  A
C1577      H1580   1.085       .  S
C1578      C1581   1.445       .  S
C1581      N1583   1.158       .  T
C1582      N1584   1.157       .  T
C1585      C1586   1.406       .  A
C1586      C1587   1.410       .  A
C1586      H1591   1.084       .  S
C1587      C1588   1.417       .  A
C1587      C1594   1.443       .  S
C1588      C1589   1.407       .  A
C1589      H1592   1.084       .  S
C1590      C1593   1.446       .  S
C1593      N1595   1.157       .  T
C1594      N1596   1.157       .  T
C1597      C1598   1.409       .  A
C1597      C1602   1.419       .  A
C1598      C1599   1.408   1_556  A
C1598      H1603   1.085       .  S
C1599      C1600   1.413       .  A
C1600      C1601   1.400       .  A
C1601      C1602   1.397   1_554  A
C1601      H1604   1.086       .  S
C1602      C1605   1.444       .  S
C1605      N1607   1.157       .  T
C1606      N1608   1.157       .  T
C1609      C1610   1.403       .  A
C1609      C1614   1.413       .  A
C1610      C1611   1.401       .  A
C1610      H1615   1.085       .  S
C1611      C1612   1.416       .  A
C1611      C1618   1.444       .  S
C1612      C1613   1.407       .  A
C1613      C1614   1.405       .  A
C1613      H1616   1.084       .  S
C1614      C1617   1.444       .  S
C1617      N1619   1.157       .  T
C1618      N1620   1.157       .  T
C1621      C1622   1.403       .  A
C1622      H1627   1.084       .  S
C1623      C1624   1.414   1_455  A
C1624      C1625   1.403       .  A
C1625      C1626   1.402       .  A
C1625      H1628   1.084       .  S
C1626      C1629   1.444       .  S
C1629      N1631   1.157       .  T
C1630      N1632   1.158       .  T
C1633      C1634   1.403       .  A
C1634      C1635   1.401       .  A
C1634      H1639   1.083       .  S
C1635      C1636   1.417       .  A
C1635      C1642   1.445       .  S
C1636      C1637   1.407       .  A
C1637      H1640   1.083       .  S
C1638      C1641   1.443       .  S
C1641      N1643   1.157   1_545  T
C1642      N1644   1.157       .  T
C1645      C1646   1.409       .  A
C1645      C1650   1.418       .  A
C1646      C1647   1.408       .  A
C1646      H1651   1.083       .  S
C1647      C1648   1.411       .  A
C1647      C1654   1.443       .  S
C1648      C1649   1.401       .  A
C1649      C1650   1.397       .  A
C1649      H1652   1.084       .  S
C1650      C1653   1.445       .  S
C1653      N1655   1.157       .  T
C1654      N1656   1.157       .  T
C1657      C1658   1.403       .  A
C1657      C1662   1.414       .  A
C1658      C1659   1.402       .  A
C1658      H1663   1.085       .  S
C1659      C1660   1.417       .  A
C1659      C1666   1.444       .  S
C1660      C1661   1.406       .  A
C1661      C1662   1.405       .  A
C1661      H1664   1.085       .  S
C1662      C1665   1.444       .  S
C1665      N1667   1.157       .  T
C1669      C1670   1.404       .  A
C1669      C1674   1.414       .  A
C1670      C1671   1.404       .  A
C1670      H1675   1.085       .  S
C1671      C1672   1.411       .  A
C1671      C1678   1.446       .  S
C1672      C1673   1.400       .  A
C1673      C1674   1.401       .  A
C1673      H1676   1.085       .  S
C1674      C1677   1.445       .  S
C1677      N1679   1.157       .  T
C1678      N1680   1.158       .  T
C1681      C1682   1.404       .  A
C1681      C1686   1.410       .  A
C1682      C1683   1.411       .  A
C1683      C1684   1.420       .  A
C1683      C1690   1.443       .  S
C1684      C1685   1.406       .  A
C1685      C1686   1.399       .  A
C1685      H1688   1.088       .  S
C1686      C1689   1.445       .  S
C1689      N1691   1.157       .  T
C1690      N1692   1.157       .  T
C1693      C1694   1.408       .  A
C1693      C1698   1.418       .  A
C1694      C1695   1.400       .  A
C1694      H1699   1.084       .  S
C1695      C1696   1.409       .  A
C1696      C1697   1.404       .  A
C1697      C1698   1.408       .  A
C1697      H1700   1.084       .  S
C1698      C1701   1.443       .  S
C1701      N1703   1.157       .  T
C1702      N1704   1.157       .  T
C1705      C1706   1.402       .  A
C1705      C1710   1.414       .  A
C1706      C1707   1.404       .  A
C1706      H1711   1.085       .  S
C1707      C1708   1.420       .  A
C1707      C1714   1.444       .  S
C1708      C1709   1.408       .  A
C1709      C1710   1.409       .  A
C1709      H1712   1.085       .  S
C1710      C1713   1.443       .  S
C1713      N1715   1.157       .  T
C1714      N1716   1.157       .  T
C1717      C1718   1.403       .  A
C1717      C1722   1.410       .  A
C1718      C1719   1.407       .  A
C1718      H1723   1.085       .  S
C1719      C1720   1.418       .  A
C1719      C1726   1.444       .  S
C1720      C1721   1.408       .  A
C1721      C1722   1.404       .  A
C1721      H1724   1.085       .  S
C1722      C1725   1.444       .  S
C1726      N1728   1.157       .  T
C1729      C1730   1.402       .  A
C1729      C1734   1.412       .  A
C1730      C1731   1.396       .  A
C1731      C1732   1.418       .  A
C1731      C1738   1.445       .  S
C1732      C1733   1.407       .  A
C1733      C1734   1.406       .  A
C1733      H1736   1.085       .  S
C1734      C1737   1.443       .  S
C1737      N1739   1.157       .  T
C1738      N1740   1.158       .  T
C1741      C1742   1.406       .  A
C1741      C1746   1.417       .  A
C1742      H1747   1.085       .  S
C1743      C1744   1.409       .  A
C1743      C1750   1.446       .  S
C1744      C1745   1.406       .  A
C1745      H1748   1.085       .  S
C1746      C1749   1.443       .  S
C1749      N1751   1.157       .  T
C1750      N1752   1.157       .  T
C1753      C1754   1.408       .  A
C1753      C1758   1.417       .  A
C1754      C1755   1.410       .  A
C1754      H1759   1.085       .  S
C1755      C1756   1.415       .  A
C1755      C1762   1.443       .  S
C1756      C1757   1.403       .  A
C1757      C1758   1.397       .  A
C1757      H1760   1.086       .  S
C1758      C1761   1.445       .  S
C1761      N1763   1.157       .  T
C1762      N1764   1.157       .  T
C1765      C1766   1.404       .  A
C1765      C1770   1.411       .  A
C1766      C1767   1.407       .  A
C1766      H1771   1.085       .  S
C1767      C1768   1.416       .  A
C1767      C1774   1.443       .  S
C1768      C1769   1.405       .  A
C1769      C1770   1.400       .  A
C1769      H1772   1.085       .  S
C1770      C1773   1.445       .  S
C1773      N1775   1.157       .  T
C1774      N1776   1.157       .  T
