geometry optimzed in LAMMPS
_audit_creation_date              2020-12-01 
_audit_creation_method            'lammps2cif' 
_symmetry_space_group_name_H-M    'P1' 
_symmetry_Int_Tables_number       1 
_symmetry_cell_setting            triclinic 
loop_ 
_symmetry_equiv_pos_as_xyz 
  x,y,z 
_cell_length_a                    48.95869734 
_cell_length_b                    48.804245230186815 
_cell_length_c                    42.058141189085845 
_cell_angle_alpha                 90.03909864784019 
_cell_angle_beta                  89.94917810729288 
_cell_angle_gamma                 90.0425534115549 
loop_ 
_atom_site_label 
_atom_site_type_symbol 
_atom_site_fract_x 
_atom_site_fract_y 
_atom_site_fract_z 
_atom_site_charge 
O1          O  0.40301025  0.86816899  0.84180016    -0.55300
C2          C  0.45120453  0.82117255  0.89195490     0.77300
O3          O  0.44816187  0.79645630  0.79364545    -0.56500
C4          C  0.39673789  0.87396103  0.81346847     0.77300
C5          C  0.48649456  0.86923425  0.80508837     0.79600
Cd6        Cd  0.44086113  0.83745053  0.82741783     1.37500
O7          O  0.43179292  0.83702669  0.88487491    -0.55300
O8          O  0.47366283  0.87569803  0.83004722    -0.54200
C9          C  0.42437280  0.78696564  0.79755665     0.79600
O10         O  0.47890988  0.84776873  0.79082127    -0.56500
O11         O  0.46640580  0.81317248  0.86949864    -0.55000
O12         O  0.41072580  0.86304410  0.79162613    -0.55000
O13         O  0.40847223  0.80039039  0.81534359    -0.54100
O14         O  0.42397086  0.73026119  0.14286846    -0.55300
C15         C  0.39252222  0.68790986  0.21278066     0.77300
O16         O  0.47226388  0.71576356  0.23853433    -0.56500
C17         C  0.44528934  0.74312725  0.13493003     0.77300
C18         C  0.41927774  0.77686692  0.22898704     0.79600
Cd19       Cd  0.43578978  0.72613952  0.19962233     1.37500
O20         O  0.40104652  0.69164599  0.18473691    -0.55300
O21         O  0.40241860  0.76145933  0.21497755    -0.54200
C22         C  0.48240344  0.69611067  0.22294265     0.79600
O23         O  0.44393522  0.76924526  0.22930720    -0.56500
O24         O  0.40410346  0.70133657  0.23464709    -0.55000
O25         O  0.46246961  0.74807175  0.15658139    -0.55000
O26         O  0.47136216  0.69039507  0.19662844    -0.54100
O27         O  0.77238808  0.49286638  0.64432329    -0.55300
C28         C  0.81309380  0.45808401  0.71556388     0.77300
O29         O  0.78239681  0.54577910  0.73002362    -0.56500
C30         C  0.75771700  0.51349518  0.63827070     0.77300
C31         C  0.72682762  0.48465862  0.73253101     0.79600
Cd32       Cd  0.77607971  0.50206241  0.70150962     1.37500
O33         O  0.80794156  0.46484852  0.68719901    -0.55300
O34         O  0.73499372  0.47382635  0.70697731    -0.54200
C35         C  0.80609132  0.55019900  0.71923086     0.79600
O36         O  0.74132322  0.50361096  0.74416083    -0.56500
O37         O  0.80147777  0.47160735  0.73732751    -0.55000
O38         O  0.75177410  0.52914941  0.66118029    -0.55000
O39         O  0.81572941  0.53281826  0.70000770    -0.54100
O40         O  0.66616159  0.49459231  0.38961907    -0.55300
C41         C  0.62770290  0.45696494  0.32008261     0.77300
O42         O  0.65099474  0.53888339  0.29420270    -0.56500
C43         C  0.68216196  0.51430999  0.39525525     0.77300
C44         C  0.71425589  0.48640802  0.30216559     0.79600
Cd45       Cd  0.66368168  0.50228168  0.33195477     1.37500
O46         O  0.63156817  0.46581914  0.34794238    -0.55300
O47         O  0.70219173  0.47113062  0.32193711    -0.54200
C48         C  0.63136330  0.54806268  0.31052521     0.79600
O49         O  0.70317633  0.50916940  0.29592603    -0.56500
O50         O  0.64009489  0.46903849  0.29777682    -0.55000
O51         O  0.68956470  0.52877730  0.37187088    -0.55000
O52         O  0.62679612  0.53656962  0.33688940    -0.54100
O53         O  0.03958398  0.70039839  0.84359459    -0.55300
C54         C  0.99008023  0.74440652  0.89528863     0.77300
O55         O  0.99209236  0.77275467  0.80182339    -0.56500
C56         C  0.04393267  0.69244049  0.81544223     0.77300
C57         C  0.95214260  0.70021763  0.80788301     0.79600
Cd58       Cd  0.99965041  0.72901956  0.83023717     1.37500
O59         O  0.00268632  0.72263673  0.88832825    -0.55300
O60         O  0.96303774  0.69477203  0.83430438    -0.54200
C61         C  0.01684431  0.78011817  0.80293191     0.79600
O62         O  0.96248286  0.71954697  0.79194210    -0.56500
O63         O  0.98144309  0.75879151  0.87247728    -0.55000
O64         O  0.02787609  0.70106877  0.79418571    -0.55000
O65         O  0.03349674  0.76394240  0.81606710    -0.54100
O66         O  0.04364467  0.86687260  0.19268272    -0.55300
C67         C  0.99378411  0.82170205  0.13865927     0.77300
O68         O  0.99740439  0.79734285  0.24027640    -0.56500
C69         C  0.04890385  0.87199433  0.22150008     0.77300
C70         C  0.95748756  0.86878231  0.22325511     0.79600
Cd71       Cd  0.00426925  0.83683270  0.20384796     1.37500
O72         O  0.01383876  0.83665226  0.14612491    -0.55300
O73         O  0.97515737  0.87822933  0.20429115    -0.54200
C74         C  0.01959523  0.78560760  0.23318766     0.79600
O75         O  0.96114324  0.84464556  0.23323021    -0.56500
O76         O  0.97827140  0.81404038  0.16094117    -0.55000
O77         O  0.03371858  0.86099484  0.24220529    -0.55000
O78         O  0.03454643  0.79729001  0.21281408    -0.54100
O79         O  0.63742290  0.10830681  0.69235703    -0.55300
C80         C  0.68654294  0.05762536  0.64337531     0.77300
O81         O  0.70382487  0.06197144  0.74451340    -0.56500
C82         C  0.62840797  0.11198690  0.72020862     0.77300
C83         C  0.63449570  0.02052667  0.72245794     0.79600
Cd84       Cd  0.66594098  0.06829852  0.70620463     1.37500
O85         O  0.66960247  0.07662039  0.64858145    -0.55300
O86         O  0.62838427  0.03528107  0.69884034    -0.54200
C87         C  0.71418707  0.08532494  0.73966088     0.79600
O88         O  0.65523555  0.02746751  0.73842751    -0.56500
O89         O  0.69380719  0.04331126  0.66688998    -0.55000
O90         O  0.63640674  0.09553268  0.74142423    -0.55000
O91         O  0.70241998  0.10059432  0.71973008    -0.54100
O92         O  0.77792342  0.06892986  0.39162039    -0.55300
C93         C  0.81025797  0.10520598  0.31604878     0.77300
O94         O  0.78304296  0.02094223  0.29782067    -0.56500
C95         C  0.76118389  0.05039733  0.39936035     0.77300
C96         C  0.72396594  0.07707109  0.30831397     0.79600
Cd97       Cd  0.77554178  0.06023504  0.33403554     1.37500
O98         O  0.80782422  0.09801966  0.34476576    -0.55300
O99         O  0.73737086  0.09217562  0.32704336    -0.54200
C100        C  0.80489476  0.01299495  0.31079837     0.79600
O101        O  0.73396628  0.05388994  0.30169491    -0.56500
O102        O  0.79727671  0.09143178  0.29559910    -0.55000
O103        O  0.75145749  0.03587198  0.37721379    -0.55000
O104        O  0.81301007  0.02634590  0.33474268    -0.54100
O105        O  0.93231794  0.22952793  0.88812935    -0.55300
C106        C  0.89812297  0.18950537  0.81771073     0.77300
O107        O  0.94447774  0.26773033  0.79376038    -0.56500
C108        C  0.95091349  0.24663494  0.89437961     0.77300
C109        C  0.98929828  0.20004141  0.81063527     0.79600
Cd110      Cd  0.94077150  0.22836527  0.83066164     1.37500
O111        O  0.90506723  0.19526822  0.84583099    -0.55300
O112        O  0.97685197  0.19361483  0.83586003    -0.54200
C113        C  0.92170586  0.27805934  0.80127849     0.79600
O114        O  0.97973920  0.21975278  0.79470781    -0.56500
O115        O  0.91117256  0.20103427  0.79551476    -0.55000
O116        O  0.96527289  0.25511672  0.87141434    -0.55000
O117        O  0.90786705  0.26566435  0.82213765    -0.54100
O118        O  0.89526037  0.36593058  0.19043411    -0.55300
C119        C  0.94830280  0.32182087  0.13829585     0.77300
O120        O  0.97616587  0.34425143  0.23705573    -0.56500
C121        C  0.89281807  0.37575042  0.21808397     0.77300
C122        C  0.91689461  0.28730687  0.22992980     0.79600
Cd123      Cd  0.93596375  0.33775315  0.20244884     1.37500
O124        O  0.93150791  0.34079915  0.14424316    -0.55300
O125        O  0.90414275  0.29923163  0.20786319    -0.54200
C126        C  0.98491889  0.36524750  0.22270397     0.79600
O127        O  0.93860788  0.29851306  0.23968875    -0.56500
O128        O  0.95991096  0.31059944  0.16171910    -0.55000
O129        O  0.91017569  0.36828302  0.23851119    -0.55000
O130        O  0.97143677  0.37337439  0.19890012    -0.54100
O131        O  0.16564957  0.56837770  0.38779152    -0.55300
C132        C  0.12802700  0.60395745  0.31352884     0.77300
O133        O  0.20307104  0.55602124  0.29206482    -0.56500
C134        C  0.18127234  0.54860848  0.39441280     0.77300
C135        C  0.13448348  0.51252945  0.30861651     0.79600
Cd136      Cd  0.16457281  0.55986546  0.32995454     1.37500
O137        O  0.13078206  0.59606675  0.34196477    -0.55300
O138        O  0.12483067  0.52887226  0.32901406    -0.54200
C139        C  0.21493177  0.57761397  0.30133080     0.79600
O140        O  0.15817895  0.51759561  0.29823351    -0.56500
O141        O  0.14206701  0.59172948  0.29267132    -0.55000
O142        O  0.18874078  0.53350252  0.37161513    -0.55000
O143        O  0.20384865  0.59076612  0.32376445    -0.54100
O144        O  0.27054542  0.57511860  0.64533786    -0.55300
C145        C  0.31366005  0.60827362  0.71353515     0.77300
O146        O  0.23147650  0.55853579  0.73262655    -0.56500
C147        C  0.25632726  0.55428724  0.63865342     0.77300
C148        C  0.30449651  0.51890100  0.72798523     0.79600
Cd149      Cd  0.27470006  0.56503469  0.70261093     1.37500
O150        O  0.31164296  0.59695613  0.68658091    -0.55300
O151        O  0.30816647  0.52730769  0.69992240    -0.54200
C152        C  0.22439177  0.58340964  0.73087337     0.79600
O153        O  0.28670467  0.53123974  0.74438798    -0.56500
O154        O  0.29803946  0.59964387  0.73525071    -0.55000
O155        O  0.25069513  0.53815897  0.66122122    -0.55000
O156        O  0.24021065  0.59945475  0.71619651    -0.54100
O157        O  0.27994239  0.99514215  0.39307989    -0.55300
C158        C  0.31623402  0.95783770  0.31982318     0.77300
O159        O  0.23927174  0.00506463  0.29795688    -0.56500
C160        C  0.26008819  0.01086898  0.39892817     0.77300
C161        C  0.30749582  0.04932508  0.31606817     0.79600
Cd162      Cd  0.27836425  0.00089535  0.33500050     1.37500
O163        O  0.30711280  0.96096981  0.34769499    -0.55300
O164        O  0.31508258  0.03510087  0.33952669    -0.54200
C165        C  0.22952789  0.98172202  0.30440968     0.79600
O166        O  0.28604541  0.04183307  0.30180795    -0.56500
O167        O  0.30819734  0.97459987  0.29895262    -0.55000
O168        O  0.24900005  0.02263054  0.37551628    -0.55000
O169        O  0.24222827  0.96741765  0.32454167    -0.54100
O170        O  0.16561854  0.99460037  0.64911707    -0.55300
C171        C  0.12840209  0.96001704  0.72358092     0.77300
O172        O  0.20812784  0.00907996  0.73922171    -0.56500
C173        C  0.18337531  0.01257926  0.64264088     0.77300
C174        C  0.13673603  0.04984157  0.72729302     0.79600
Cd175      Cd  0.16652528  0.00237814  0.70690636     1.37500
O176        O  0.13372768  0.96536438  0.69483172    -0.55300
O177        O  0.13241013  0.03885710  0.70057870    -0.54200
C178        C  0.21767649  0.98547896  0.73374356     0.79600
O179        O  0.15523342  0.03947515  0.74439900    -0.56500
O180        O  0.14077412  0.97382022  0.74449140    -0.55000
O181        O  0.19302288  0.02622665  0.66558144    -0.55000
O182        O  0.20370262  0.96976475  0.71626798    -0.54100
O183        O  0.51393742  0.34137587  0.89284300    -0.55300
C184        C  0.54598598  0.37817696  0.81794157     0.77300
O185        O  0.49633886  0.30214782  0.79973984    -0.56500
C186        C  0.49503457  0.32513142  0.90071431     0.77300
C187        C  0.45466448  0.37219081  0.81592697     0.79600
Cd188      Cd  0.50247810  0.34197353  0.83561235     1.37500
O189        O  0.53796752  0.37639122  0.84642778    -0.55300
O190        O  0.47120758  0.38167269  0.83614998    -0.54200
C191        C  0.51943378  0.29172889  0.80558152     0.79600
O192        O  0.45971680  0.34861724  0.80500172    -0.56500
O193        O  0.53375889  0.36368337  0.79750458    -0.55000
O194        O  0.47922566  0.31707302  0.87892113    -0.55000
O195        O  0.53451666  0.30426107  0.82513470    -0.54100
O196        O  0.51074087  0.22447358  0.14819319    -0.55300
C197        C  0.54659266  0.18690987  0.22109183     0.77300
O198        O  0.50209283  0.26159370  0.24676846    -0.56500
C199        C  0.49398587  0.24347060  0.14237577     0.77300
C200        C  0.45585966  0.19582586  0.22546597     0.79600
Cd201      Cd  0.50405244  0.22500376  0.20624121     1.37500
O202        O  0.54061364  0.19253402  0.19260877    -0.55300
O203        O  0.47305788  0.18549619  0.20659232    -0.54200
C204        C  0.52416873  0.27286076  0.23822375     0.79600
O205        O  0.46033467  0.21995439  0.23504331    -0.56500
O206        O  0.53303855  0.19873693  0.24267906    -0.55000
O207        O  0.48144121  0.25372151  0.16577918    -0.55000
O208        O  0.53680360  0.26222559  0.21511577    -0.54100
C209        C  0.48805833  0.29538391  0.99089463     0.19500
C210        C  0.48171676  0.31211165  0.01695689    -0.09600
C211        C  0.48103475  0.30102584  0.04761026    -0.10500
C212        C  0.48667758  0.27317623  0.05231362     0.21100
C213        C  0.49260402  0.25636932  0.02619508    -0.12500
C214        C  0.49328372  0.26744893  0.99555658    -0.10800
C215        C  0.48766122  0.26214816  0.08400524     0.02000
C216        C  0.48984566  0.25332538  0.11063798    -0.30800
C217        C  0.48985398  0.30690067  0.95947265     0.03400
C218        C  0.49195889  0.31579131  0.93284822    -0.32500
H219        H  0.47764974  0.33374279  0.01362414     0.14500
H220        H  0.47651682  0.31423172  0.06767204     0.14300
H221        H  0.49709247  0.23482156  0.02957320     0.14100
H222        H  0.49822097  0.25432020  0.97555398     0.13200
C223        C  0.39402467  0.14802086  0.25849834     0.19500
C224        C  0.39188632  0.14423310  0.29142019    -0.09600
C225        C  0.37291135  0.12562934  0.30371912    -0.10500
C226        C  0.35600845  0.11075034  0.28312982     0.21100
C227        C  0.35800724  0.11468354  0.25020879    -0.12500
C228        C  0.37699284  0.13328947  0.23790550    -0.10800
C229        C  0.33752600  0.09054940  0.29563763     0.02000
C230        C  0.32310618  0.07242902  0.30547668    -0.30800
C231        C  0.41445115  0.16618698  0.24592073     0.03400
C232        C  0.43269680  0.18043427  0.23613475    -0.32500
H233        H  0.40510176  0.15539858  0.30752323     0.14500
H234        H  0.37166432  0.12258979  0.32919733     0.14300
H235        H  0.34515774  0.10312183  0.23407689     0.14100
H236        H  0.37862096  0.13593917  0.21239330     0.13200
C237        C  0.21131759  0.02008184  0.55184986     0.19500
C238        C  0.23953435  0.01911080  0.54636290    -0.09600
C239        C  0.24958718  0.01842457  0.51524378    -0.10500
C240        C  0.23146627  0.01872524  0.48948687     0.21100
C241        C  0.20326132  0.01999284  0.49496938    -0.12500
C242        C  0.19320763  0.02067826  0.52609139    -0.10800
C243        C  0.24176591  0.01701768  0.45750460     0.02000
C244        C  0.25028249  0.01476885  0.43073822    -0.30800
C245        C  0.20095391  0.01913857  0.58384190     0.03400
C246        C  0.19260166  0.01687986  0.61067274    -0.32500
H247        H  0.25372032  0.01850136  0.56612568     0.14500
H248        H  0.27144245  0.01735881  0.51126696     0.14300
H249        H  0.18906012  0.02014802  0.47521054     0.14100
H250        H  0.17133653  0.02128890  0.53007569     0.13200
C251        C  0.39202139  0.42059044  0.78553717     0.19500
C252        C  0.38112021  0.41781228  0.75489347    -0.09600
C253        C  0.36193741  0.43675143  0.74371076    -0.10500
C254        C  0.35355372  0.45854971  0.76311554     0.21100
C255        C  0.36422649  0.46112982  0.79387927    -0.12500
C256        C  0.38339371  0.44220315  0.80505400    -0.10800
C257        C  0.33488254  0.47887209  0.75108920     0.02000
C258        C  0.32031627  0.49670359  0.74075634    -0.30800
C259        C  0.41295103  0.40210765  0.79646102     0.03400
C260        C  0.43148023  0.38779819  0.80548106    -0.32500
H261        H  0.38773581  0.40127729  0.73951951     0.14500
H262        H  0.35393359  0.43461685  0.71981645     0.14300
H263        H  0.35801508  0.47796334  0.80904310     0.14100
H264        H  0.39178374  0.44465354  0.82873124     0.13200
C265        C  0.22906510  0.54345397  0.54780640     0.19500
C266        C  0.24674480  0.54853474  0.52225815    -0.09600
C267        C  0.23699726  0.54738713  0.49102421    -0.10500
C268        C  0.20950736  0.54114914  0.48515992     0.21100
C269        C  0.19192773  0.53563213  0.51067961    -0.12500
C270        C  0.20167888  0.53677910  0.54192477    -0.10800
C271        C  0.19910082  0.54181525  0.45313170     0.02000
C272        C  0.19063684  0.54402012  0.42632023    -0.30800
C273        C  0.23877679  0.54610794  0.57999999     0.03400
C274        C  0.24684270  0.54935031  0.60684596    -0.32500
H275        H  0.26795417  0.55379438  0.52650858     0.14500
H276        H  0.25076289  0.55181155  0.47149543     0.14300
H277        H  0.17059460  0.53090190  0.50644881     0.14100
H278        H  0.18779399  0.53288327  0.56148599     0.13200
C279        C  0.08666799  0.45038117  0.27547140     0.19500
C280        C  0.08055505  0.42707541  0.29360889    -0.09600
C281        C  0.06162505  0.40785173  0.28238751    -0.10500
C282        C  0.04876206  0.41188438  0.25299602     0.21100
C283        C  0.05525896  0.43493495  0.23465795    -0.12500
C284        C  0.07414699  0.45412468  0.24586059    -0.10800
C285        C  0.02771573  0.39342124  0.24237024     0.02000
C286        C  0.00876393  0.37968696  0.23333897    -0.30800
C287        C  0.10482819  0.47109209  0.28765085     0.03400
C288        C  0.11895184  0.48951482  0.29742151    -0.32500
H289        H  0.09004376  0.42402226  0.31660101     0.14500
H290        H  0.05664199  0.39017142  0.29685495     0.14300
H291        H  0.04532779  0.43834193  0.21198870     0.14100
H292        H  0.07863312  0.47211149  0.23169022     0.13200
C293        C  0.08900267  0.11250973  0.75876606     0.19500
C294        C  0.07903968  0.13250827  0.73791012    -0.09600
C295        C  0.06061728  0.15227801  0.74883923    -0.10500
C296        C  0.05211081  0.15209167  0.78065691     0.21100
C297        C  0.06242914  0.13236252  0.80161316    -0.12500
C298        C  0.08083557  0.11260697  0.79069189    -0.10800
C299        C  0.03148466  0.17092130  0.79133820     0.02000
C300        C  0.01284345  0.18509618  0.80021273    -0.30800
C301        C  0.10680460  0.09129995  0.74725674     0.03400
C302        C  0.12094870  0.07277253  0.73795343    -0.32500
H303        H  0.08516826  0.13254424  0.71312894     0.14500
H304        H  0.05261521  0.16733965  0.73239353     0.14300
H305        H  0.05583231  0.13193027  0.82623092     0.14100
H306        H  0.08835259  0.09716572  0.80698280     0.13200
C307        C  0.95826839  0.29465040  0.04751587     0.19500
C308        C  0.95850713  0.26636178  0.04180592    -0.09600
C309        C  0.95864891  0.25646433  0.01060682    -0.10500
C310        C  0.95856776  0.27481937  0.98501945     0.21100
C311        C  0.95866951  0.30310198  0.99072761    -0.12500
C312        C  0.95852776  0.31299949  0.02192439    -0.10800
C313        C  0.95734210  0.26466847  0.95297052     0.02000
C314        C  0.95512895  0.25630769  0.92615160    -0.30800
C315        C  0.95642976  0.30480134  0.07954202     0.03400
C316        C  0.95345807  0.31294916  0.10636530    -0.32500
H317        H  0.95816494  0.25199329  0.06144188     0.14500
H318        H  0.95844664  0.23453886  0.00643187     0.14300
H319        H  0.95848332  0.31746828  0.97108511     0.14100
H320        H  0.95820159  0.33492099  0.02609085     0.13200
C321        C  0.85419717  0.17189629  0.28800661     0.19500
C322        C  0.83983021  0.19575056  0.28013162    -0.09600
C323        C  0.85386188  0.21876164  0.26897203    -0.10500
C324        C  0.88232732  0.21804562  0.26565683     0.21100
C325        C  0.89673136  0.19422855  0.27361805    -0.12500
C326        C  0.88268208  0.17118435  0.28479279    -0.10800
C327        C  0.89650975  0.24175280  0.25381960     0.02000
C328        C  0.90680791  0.26228036  0.24334537    -0.30800
C329        C  0.83959670  0.14804633  0.29874858     0.03400
C330        C  0.82666923  0.12826996  0.30701642    -0.32500
H331        H  0.81779000  0.19650235  0.28245515     0.14500
H332        H  0.84252380  0.23707137  0.26282399     0.14300
H333        H  0.91875426  0.19344854  0.27108583     0.14100
H334        H  0.89396947  0.15281407  0.29074915     0.13200
C335        C  0.65442028  0.10835477  0.27010244     0.19500
C336        C  0.62945530  0.10715025  0.28632269    -0.09600
C337        C  0.60682220  0.12135458  0.27462930    -0.10500
C338        C  0.60909942  0.13681106  0.24670364     0.21100
C339        C  0.63391204  0.13756656  0.23012603    -0.12500
C340        C  0.65654518  0.12335762  0.24181853    -0.10800
C341        C  0.58651145  0.15321459  0.23619816     0.02000
C342        C  0.56805077  0.16813837  0.22870408    -0.30800
C343        C  0.67820550  0.09547922  0.28333521     0.03400
C344        C  0.69874626  0.08620474  0.29477327    -0.32500
H345        H  0.62765073  0.09571277  0.30829703     0.14500
H346        H  0.58774104  0.12077275  0.28770441     0.14300
H347        H  0.63590625  0.14958685  0.20859700     0.14100
H348        H  0.67582404  0.12451994  0.22918079     0.13200
C349        C  0.54995765  0.22134433  0.76745678     0.19500
C350        C  0.55745425  0.21937017  0.73536260    -0.09600
C351        C  0.57183103  0.19642270  0.72445570    -0.10500
C352        C  0.57877062  0.17537508  0.74561332     0.21100
C353        C  0.57068068  0.17705960  0.77751312    -0.12500
C354        C  0.55631986  0.19997473  0.78840284    -0.10800
C355        C  0.59531843  0.15272082  0.73511876     0.02000
C356        C  0.61008914  0.13403123  0.72762574    -0.30800
C357        C  0.53731743  0.24591824  0.77943662     0.03400
C358        C  0.52833232  0.26676130  0.79077458    -0.32500
H359        H  0.55273305  0.23582241  0.71895957     0.14500
H360        H  0.57802694  0.19536244  0.69975253     0.14300
H361        H  0.57598357  0.16093220  0.79410923     0.14100
H362        H  0.55072410  0.20131742  0.81329315     0.13200
C363        C  0.83176339  0.14267536  0.79701711     0.19500
C364        C  0.80679553  0.14953315  0.81125503    -0.09600
C365        C  0.78284398  0.13613748  0.80195981    -0.10500
C366        C  0.78380283  0.11584153  0.77841854     0.21100
C367        C  0.80881407  0.10879023  0.76444658    -0.12500
C368        C  0.83275305  0.12218364  0.77373078    -0.10800
C369        C  0.75901163  0.10341292  0.76716776     0.02000
C370        C  0.73840573  0.09427154  0.75568448    -0.30800
C371        C  0.85608952  0.15755768  0.80522131     0.03400
C372        C  0.87583082  0.17133558  0.81124291    -0.32500
H373        H  0.80579755  0.16549794  0.82913172     0.14500
H374        H  0.76354724  0.14191488  0.81271542     0.14300
H375        H  0.80972393  0.09329418  0.74601990     0.14100
H376        H  0.85193915  0.11687290  0.76241606     0.13200
C377        C  0.71704171  0.04658228  0.55413005     0.19500
C378        C  0.74307693  0.05672826  0.54683025    -0.09600
C379        C  0.75282315  0.05551802  0.51560720    -0.10500
C380        C  0.73658207  0.04414330  0.49156785     0.21100
C381        C  0.71074516  0.03354589  0.49897615    -0.12500
C382        C  0.70099784  0.03475474  0.53020703    -0.10800
C383        C  0.74586042  0.04462663  0.45911678     0.02000
C384        C  0.75316455  0.04648018  0.43183390    -0.30800
C385        C  0.70636440  0.04937108  0.58582701     0.03400
C386        C  0.69725077  0.05271590  0.61216233    -0.32500
H387        H  0.75562511  0.06598525  0.56515104     0.14500
H388        H  0.77279696  0.06387653  0.51010454     0.14300
H389        H  0.69797008  0.02480356  0.48053102     0.14100
H390        H  0.68079502  0.02690963  0.53559599     0.13200
C391        C  0.11446940  0.91825868  0.24773192     0.19500
C392        C  0.13805724  0.90398483  0.25660963    -0.09600
C393        C  0.16125043  0.91829729  0.26651563    -0.10500
C394        C  0.16101789  0.94697257  0.26760038     0.21100
C395        C  0.13748992  0.96132824  0.25855623    -0.12500
C396        C  0.11423157  0.94697872  0.24861584    -0.10800
C397        C  0.18474727  0.96136436  0.27890080     0.02000
C398        C  0.20507782  0.97167000  0.28974917    -0.30800
C399        C  0.09059853  0.90320331  0.23805101     0.03400
C400        C  0.07129167  0.88937065  0.23035480    -0.32500
H401        H  0.13845795  0.88180265  0.25603777     0.14500
H402        H  0.17931714  0.90698569  0.27356563     0.14300
H403        H  0.13707227  0.98350876  0.25941215     0.14100
H404        H  0.09607635  0.95822568  0.24181302     0.13200
C405        C  0.04895865  0.71377215  0.26852013     0.19500
C406        C  0.05309687  0.70876449  0.30098285    -0.09600
C407        C  0.06764528  0.68554196  0.31073929    -0.10500
C408        C  0.07813516  0.66726408  0.28807770     0.21100
C409        C  0.07335657  0.67192296  0.25569430    -0.12500
C410        C  0.05882238  0.69509510  0.24595808    -0.10800
C411        C  0.09489833  0.64449421  0.29780372     0.02000
C412        C  0.10979253  0.62587645  0.30524342    -0.30800
C413        C  0.03631079  0.73884676  0.25802843     0.03400
C414        C  0.02768099  0.76014494  0.24749334    -0.32500
H415        H  0.04566026  0.72310590  0.31866048     0.14500
H416        H  0.07123249  0.68216867  0.33585481     0.14300
H417        H  0.08137975  0.65797678  0.23795129     0.14100
H418        H  0.05584775  0.69879444  0.22079290     0.13200
C419        C  0.85324109  0.95219588  0.27534724     0.19500
C420        C  0.86329416  0.95489842  0.24428862    -0.09600
C421        C  0.88333408  0.93690622  0.23299154    -0.10500
C422        C  0.89344222  0.91610348  0.25268996     0.21100
C423        C  0.88291159  0.91299134  0.28348465    -0.12500
C424        C  0.86287067  0.93098983  0.29478504    -0.10800
C425        C  0.91539393  0.89875368  0.24182681     0.02000
C426        C  0.93439083  0.88484574  0.23317540    -0.30800
C427        C  0.83445794  0.97222663  0.28787774     0.03400
C428        C  0.82021981  0.99023550  0.29847869    -0.32500
H429        H  0.85609475  0.97127553  0.22907141     0.14500
H430        H  0.89132592  0.93955388  0.20915977     0.14300
H431        H  0.89057853  0.89701621  0.29895858     0.14100
H432        H  0.85534453  0.92875108  0.31887740     0.13200
C433        C  0.10902726  0.64525384  0.78992221     0.19500
C434        C  0.10732762  0.62893850  0.76257009    -0.09600
C435        C  0.13034876  0.61484231  0.75160512    -0.10500
C436        C  0.15517927  0.61696799  0.76795586     0.21100
C437        C  0.15684290  0.63313680  0.79544159    -0.12500
C438        C  0.13381220  0.64724095  0.80641339    -0.10800
C439        C  0.17914430  0.60341368  0.75585479     0.02000
C440        C  0.19955063  0.59330713  0.74488121    -0.30800
C441        C  0.08566978  0.66081092  0.80024554     0.03400
C442        C  0.06639740  0.67476029  0.80776566    -0.32500
H443        H  0.08831185  0.62738605  0.74952167     0.14500
H444        H  0.12887048  0.60254400  0.73021212     0.14300
H445        H  0.17599227  0.63507408  0.80816617     0.14100
H446        H  0.13540559  0.65992603  0.82747577     0.13200
C447        C  0.07761302  0.89788317  0.74952162     0.19500
C448        C  0.06356985  0.89824050  0.77857503    -0.09600
C449        C  0.04903659  0.87507510  0.78851212    -0.10500
C450        C  0.04850629  0.85153670  0.76940328     0.21100
C451        C  0.06222448  0.85137293  0.74017907    -0.12500
C452        C  0.07672606  0.87449589  0.73025692    -0.10800
C453        C  0.03523503  0.82703282  0.78043962     0.02000
C454        C  0.02585198  0.80580966  0.79018128    -0.30800
C455        C  0.09414142  0.92083207  0.74009715     0.03400
C456        C  0.10932056  0.93904283  0.73224329    -0.32500
H457        H  0.06426584  0.91618355  0.79373979     0.14500
H458        H  0.03864532  0.87533861  0.81127529     0.14300
H459        H  0.06210657  0.83321447  0.72533840     0.14100
H460        H  0.08765300  0.87396693  0.70784823     0.13200
C461        C  0.98506585  0.79505702  0.04741832     0.19500
C462        C  0.96501670  0.77587556  0.03893898    -0.09600
C463        C  0.96463537  0.76484171  0.00820940    -0.10500
C464        C  0.98432333  0.77295873  0.98591113     0.21100
C465        C  0.00414675  0.79235074  0.99432060    -0.12500
C466        C  0.00452529  0.80336306  0.02498069    -0.10800
C467        C  0.98457857  0.76138669  0.95445662     0.02000
C468        C  0.98635343  0.75287555  0.92763737    -0.30800
C469        C  0.98653085  0.80536857  0.07943370     0.03400
C470        C  0.98919657  0.81331262  0.10640121    -0.32500
H471        H  0.94992192  0.76923124  0.05616384     0.14500
H472        H  0.94919440  0.74986356  0.00193534     0.14300
H473        H  0.01945795  0.79878102  0.97723962     0.14100
H474        H  0.02018094  0.81809834  0.03130855     0.13200
C475        C  0.58223718  0.38984957  0.29814207     0.19500
C476        C  0.58579519  0.36528771  0.31485772    -0.09600
C477        C  0.57283379  0.34137161  0.30444116    -0.10500
C478        C  0.55628429  0.34198482  0.27729029     0.21100
C479        C  0.55248937  0.36662037  0.26082518    -0.12500
C480        C  0.56543802  0.39050946  0.27122610    -0.10800
C481        C  0.54406773  0.31722857  0.26544155     0.02000
C482        C  0.53450968  0.29680454  0.25383087    -0.30800
C483        C  0.59692591  0.41402058  0.30752306     0.03400
C484        C  0.61038035  0.43391915  0.31395226    -0.32500
H485        H  0.59890760  0.36454470  0.33559282     0.14500
H486        H  0.57601629  0.32237408  0.31724165     0.14300
H487        H  0.53984587  0.36726471  0.23969288     0.14100
H488        H  0.56271037  0.40935881  0.25802079     0.13200
C489        C  0.83025143  0.42657195  0.24325092     0.19500
C490        C  0.80798290  0.43075534  0.22290426    -0.09600
C491        C  0.78526949  0.44562895  0.23342105    -0.10500
C492        C  0.78472790  0.45638851  0.26431906     0.21100
C493        C  0.80729457  0.45280919  0.28435870    -0.12500
C494        C  0.82999463  0.43794492  0.27384994    -0.10800
C495        C  0.76031995  0.46923330  0.27630499     0.02000
C496        C  0.73941504  0.47805160  0.28753004    -0.30800
C497        C  0.85272727  0.40951118  0.23339803     0.03400
C498        C  0.87117070  0.39438942  0.22604323    -0.32500
H499        H  0.80792222  0.42201192  0.19922419     0.14500
H500        H  0.76787468  0.44813931  0.21776833     0.14300
H501        H  0.80705122  0.46090279  0.30835538     0.14100
H502        H  0.84706615  0.43479435  0.28981988     0.13200
C503        C  0.86097454  0.39352717  0.74085826     0.19500
C504        C  0.86151907  0.36944051  0.72273096    -0.09600
C505        C  0.87557260  0.34643100  0.73386799    -0.10500
C506        C  0.88912907  0.34742522  0.76317885     0.21100
C507        C  0.88886930  0.37163035  0.78110158    -0.12500
C508        C  0.87482325  0.39463235  0.76996909    -0.10800
C509        C  0.90215786  0.32327099  0.77556813     0.02000
C510        C  0.91180429  0.30274190  0.78683444    -0.30800
C511        C  0.84521886  0.41667886  0.73038125     0.03400
C512        C  0.83104236  0.43578156  0.72289549    -0.32500
H513        H  0.85074324  0.36832220  0.70025094     0.14500
H514        H  0.87551385  0.32776514  0.71989877     0.14300
H515        H  0.89916056  0.37257917  0.80390162     0.14100
H516        H  0.87440471  0.41310869  0.78425149     0.13200
C517        C  0.61058314  0.42532847  0.79116766     0.19500
C518        C  0.61207682  0.43457513  0.75970579    -0.09600
C519        C  0.63518182  0.44874306  0.74920459    -0.10500
C520        C  0.65686977  0.45370789  0.77013194     0.21100
C521        C  0.65521622  0.44482028  0.80173654    -0.12500
C522        C  0.63208921  0.43064043  0.81224905    -0.10800
C523        C  0.68138347  0.46647987  0.75859694     0.02000
C524        C  0.70215847  0.47561469  0.74752141    -0.30800
C525        C  0.58740588  0.40957848  0.80139716     0.03400
C526        C  0.56826190  0.39562825  0.80920361    -0.32500
H527        H  0.59558513  0.43047643  0.74320818     0.14500
H528        H  0.63634669  0.45539343  0.72465998     0.14300
H529        H  0.67196532  0.44842501  0.81804251     0.14100
H530        H  0.63114814  0.42347909  0.83660859     0.13200
C531        C  0.89231049  0.65047338  0.77369636     0.19500
C532        C  0.89481901  0.64086588  0.74243354    -0.09600
C533        C  0.87608311  0.62183842  0.73053067    -0.10500
C534        C  0.85478447  0.61233128  0.74985497     0.21100
C535        C  0.85227960  0.62191660  0.78113129    -0.12500
C536        C  0.87102532  0.64095081  0.79304041    -0.10800
C537        C  0.83625550  0.59185736  0.73808755     0.02000
C538        C  0.82177262  0.57351099  0.72898782    -0.30800
C539        C  0.91203635  0.66951195  0.78607304     0.03400
C540        C  0.92963517  0.68442679  0.79613156    -0.32500
H541        H  0.91133796  0.64794378  0.72737035     0.14500
H542        H  0.87834456  0.61435677  0.70638925     0.14300
H543        H  0.83602056  0.61449409  0.79635196     0.14100
H544        H  0.86903584  0.64809725  0.81735017     0.13200
C545        C  0.71047970  0.52438044  0.48542261     0.19500
C546        C  0.69327552  0.53200092  0.51055734    -0.09600
C547        C  0.70304644  0.53172001  0.54179560    -0.10500
C548        C  0.73003970  0.52381929  0.54793902     0.21100
C549        C  0.74734107  0.51665229  0.52275627    -0.12500
C550        C  0.73758597  0.51693514  0.49156384    -0.10800
C551        C  0.73970403  0.52179981  0.58008125     0.02000
C552        C  0.74798351  0.51866951  0.60676964    -0.30800
C553        C  0.70007325  0.52275710  0.45353451     0.03400
C554        C  0.69174219  0.51970746  0.42682692    -0.32500
H555        H  0.67221861  0.53766939  0.50605941     0.14500
H556        H  0.68947248  0.53718824  0.56115151     0.14300
H557        H  0.76822564  0.51039428  0.52729272     0.14100
H558        H  0.75101067  0.51087902  0.47230727     0.13200
C559        C  0.36435644  0.89356074  0.29395710     0.19500
C560        C  0.37947136  0.89515327  0.26572215    -0.09600
C561        C  0.39253031  0.87185979  0.25374154    -0.10500
C562        C  0.39054992  0.84686911  0.26994315     0.17900
C563        C  0.37601027  0.84542845  0.29861997    -0.12500
C564        C  0.36293838  0.86873747  0.31060812    -0.10800
C565        C  0.40214274  0.82246612  0.25624516     0.02000
C566        C  0.41062316  0.80181531  0.24397858    -0.30800
C567        C  0.34883051  0.91685945  0.30456927     0.03400
C568        C  0.33451975  0.93588924  0.31205071    -0.32500
H569        H  0.38059820  0.91420654  0.25258949     0.14500
H570        H  0.40364517  0.87318872  0.23149207     0.14300
H571        H  0.37427122  0.82618338  0.31129935     0.14100
H572        H  0.35119732  0.86724697  0.33240499     0.13200
C573        C  0.28366163  0.60987677  0.26152742     0.19500
C574        C  0.28122284  0.62539938  0.23365252    -0.09600
C575        C  0.30376842  0.63976209  0.22178228    -0.10500
C576        C  0.32885083  0.63864622  0.23775452     0.21100
C577        C  0.33140529  0.62272422  0.26529839    -0.12500
C578        C  0.30886705  0.60837617  0.27716620    -0.10800
C579        C  0.35155801  0.65493699  0.22698171     0.02000
C580        C  0.37042878  0.66951047  0.21964379    -0.30800
C581        C  0.26000077  0.59672091  0.27495858     0.03400
C582        C  0.23969022  0.58715697  0.28680022    -0.32500
H583        H  0.26177157  0.62681030  0.22144374     0.14500
H584        H  0.30152133  0.65211368  0.20055535     0.14300
H585        H  0.35067537  0.62182647  0.27792633     0.14100
H586        H  0.31095605  0.59655014  0.29882035     0.13200
C587        C  0.58204353  0.60949306  0.27849544     0.19500
C588        C  0.57995261  0.61476678  0.24583470    -0.09600
C589        C  0.56116980  0.63409829  0.23467573    -0.10500
C590        C  0.54438153  0.64824325  0.25612895     0.21100
C591        C  0.54686611  0.64335785  0.28882488    -0.12500
C592        C  0.56564215  0.62403414  0.29997983    -0.10800
C593        C  0.52358921  0.66655566  0.24452528     0.02000
C594        C  0.50519286  0.68065315  0.23474192    -0.30800
C595        C  0.60022998  0.58849418  0.28988987     0.03400
C596        C  0.61476072  0.57032412  0.29942972    -0.32500
H597        H  0.59250398  0.60361138  0.22897817     0.14500
H598        H  0.55936653  0.63762812  0.20933346     0.14300
H599        H  0.53392320  0.65409871  0.30564093     0.14100
H600        H  0.56704527  0.62010023  0.32527418     0.13200
C601        C  0.28807108  0.95377916  0.76912863     0.19500
C602        C  0.31247969  0.95444703  0.75173094    -0.09600
C603        C  0.33505268  0.93937753  0.76208287    -0.10500
C604        C  0.33325921  0.92360182  0.78981987     0.21100
C605        C  0.30901832  0.92332280  0.80750738    -0.12500
C606        C  0.28646408  0.93839311  0.79716880    -0.10800
C607        C  0.35587213  0.90680532  0.79934436     0.02000
C608        C  0.37460555  0.89204368  0.80630872    -0.30800
C609        C  0.26412279  0.96731623  0.75722924     0.03400
C610        C  0.24320502  0.97665261  0.74681139    -0.32500
H611        H  0.31387080  0.96613242  0.72989961     0.14500
H612        H  0.35370760  0.93962436  0.74818487     0.14300
H613        H  0.30740997  0.91109885  0.82891631     0.14100
H614        H  0.26760282  0.93760234  0.81067180     0.13200
C615        C  0.39345304  0.71745913  0.75781994     0.19500
C616        C  0.39406041  0.69287713  0.77498366    -0.09600
C617        C  0.37957493  0.67003360  0.76403828    -0.10500
C618        C  0.36439730  0.67165688  0.73586480     0.21100
C619        C  0.36426303  0.69606468  0.71833175    -0.12500
C620        C  0.37875646  0.71892046  0.72928560    -0.10800
C621        C  0.34772125  0.64884236  0.72605223     0.02000
C622        C  0.33266851  0.63011378  0.71941856    -0.30800
C623        C  0.40637823  0.74159227  0.77056080     0.03400
C624        C  0.41554237  0.76213065  0.78243031    -0.32500
H625        H  0.40521971  0.69155725  0.79718220     0.14500
H626        H  0.37971819  0.65132665  0.77787766     0.14300
H627        H  0.35248765  0.69760622  0.69659951     0.14100
H628        H  0.37800407  0.73786819  0.71591392     0.13200
C629        C  0.58487938  0.95803380  0.75050261     0.19500
C630        C  0.57264301  0.93982508  0.72901224    -0.09600
C631        C  0.55344063  0.92069869  0.73979706    -0.10500
C632        C  0.54644269  0.91972940  0.77210521     0.21100
C633        C  0.55887705  0.93776567  0.79358471    -0.12500
C634        C  0.57804791  0.95685412  0.78282154    -0.10800
C635        C  0.52601615  0.90081627  0.78323220     0.02000
C636        C  0.50836446  0.88587291  0.79317231    -0.30800
C637        C  0.60352784  0.97874205  0.73941945     0.03400
C638        C  0.61820191  0.99727270  0.73117860    -0.32500
H639        H  0.57768289  0.94064987  0.70392386     0.14500
H640        H  0.54386780  0.90689965  0.72295879     0.14300
H641        H  0.55353877  0.93725749  0.81860524     0.14100
H642        H  0.58728034  0.97092026  0.79961572     0.13200
C643        C  0.45419944  0.77025103  0.04387056     0.19500
C644        C  0.43718296  0.75964947  0.02009362    -0.09600
C645        C  0.43823929  0.77040535  0.98933139    -0.10500
C646        C  0.45630880  0.79181207  0.98218943     0.21100
C647        C  0.47353278  0.80224915  0.00586472    -0.12500
C648        C  0.47247877  0.79147801  0.03666232    -0.10800
C649        C  0.45660679  0.80327732  0.95070740     0.02000
C650        C  0.45516602  0.81201958  0.92398275    -0.30800
C651        C  0.45218443  0.76001327  0.07586092     0.03400
C652        C  0.44955301  0.75201685  0.10280232    -0.32500
H653        H  0.42290318  0.74329167  0.02542536     0.14500
H654        H  0.42479594  0.76221593  0.97118952     0.14300
H655        H  0.48755674  0.81883877  0.00059736     0.14100
H656        H  0.48566826  0.79988099  0.05491079     0.13200
loop_ 
_geom_bond_atom_site_label_1 
_geom_bond_atom_site_label_2 
_geom_bond_distance 
_geom_bond_site_symmetry_2 
_ccdc_geom_bond_type 
O1            C4   1.263       .  A
O1           Cd6   2.459       .  S
C2           O11   1.264       .  A
C2            O7   1.262       .  A
C2          C650   1.433       .  S
O3            C9   1.264       .  A
O3           Cd6   2.479       .  S
C4           O12   1.263       .  A
C4          C608   1.430       .  S
C5           O10   1.263       .  A
C5            O8   1.263       .  A
C5          C636   1.434       .  S
Cd6          O13   2.458       .  S
Cd6          O12   2.452       .  S
Cd6          O11   2.472       .  S
Cd6           O7   2.457       .  S
Cd6          O10   2.467       .  S
Cd6           O8   2.464       .  S
C9           O13   1.263       .  A
C9          C624   1.435       .  S
O14          C17   1.262       .  A
O14         Cd19   2.465       .  S
C15          O24   1.263       .  A
C15          O20   1.264       .  A
C15         C580   1.435       .  S
O16          C22   1.263       .  A
O16         Cd19   2.476       .  S
C17          O25   1.263       .  A
C17         C652   1.435       .  S
C18          O23   1.264       .  A
C18          O21   1.262       .  A
C18         C566   1.435       .  S
Cd19         O26   2.469       .  S
Cd19         O25   2.475       .  S
Cd19         O24   2.457       .  S
Cd19         O20   2.473       .  S
Cd19         O23   2.478       .  S
Cd19         O21   2.461       .  S
C22          O26   1.263       .  A
C22         C594   1.436       .  S
O27          C30   1.263       .  A
O27         Cd32   2.453       .  S
C28          O37   1.263       .  A
C28          O33   1.264       .  A
C28         C512   1.433       .  S
O29          C35   1.264       .  A
O29         Cd32   2.466       .  S
C30          O38   1.263       .  A
C30         C552   1.431       .  S
C31          O36   1.264       .  A
C31          O34   1.262       .  A
C31         C524   1.432       .  S
Cd32         O39   2.454       .  S
Cd32         O38   2.460       .  S
Cd32         O37   2.456       .  S
Cd32         O33   2.469       .  S
Cd32         O36   2.473       .  S
Cd32         O34   2.448       .  S
C35          O39   1.263       .  A
C35         C538   1.432       .  S
O40          C43   1.263       .  A
O40         Cd45   2.457       .  S
C41          O50   1.263       .  A
C41          O46   1.263       .  A
C41         C484   1.432       .  S
O42          C48   1.263       .  A
O42         Cd45   2.471       .  S
C43          O51   1.264       .  A
C43         C554   1.433       .  S
C44          O49   1.264       .  A
C44          O47   1.263       .  A
C44         C496   1.436       .  S
Cd45         O52   2.471       .  S
Cd45         O51   2.469       .  S
Cd45         O50   2.455       .  S
Cd45         O46   2.467       .  S
Cd45         O49   2.478       .  S
Cd45         O47   2.459       .  S
C48          O52   1.263       .  A
C48         C596   1.436       .  S
O53          C56   1.264       .  A
O53         Cd58   2.469   1_455  S
C54          O63   1.263       .  A
C54          O59   1.263   1_655  A
C54         C468   1.433       .  S
O55          C61   1.265   1_655  A
O55         Cd58   2.475       .  S
C56          O64   1.264       .  A
C56         C442   1.435       .  S
C57          O62   1.263       .  A
C57          O60   1.262       .  A
C57         C540   1.432       .  S
Cd58         O65   2.450   1_655  S
Cd58         O64   2.463   1_655  S
Cd58         O63   2.461       .  S
Cd58         O59   2.468   1_655  S
Cd58         O62   2.474       .  S
Cd58         O60   2.456       .  S
C61          O65   1.263       .  A
C61         C454   1.433       .  S
O66          C69   1.264       .  A
O66         Cd71   2.466       .  S
C67          O76   1.262       .  A
C67          O72   1.263   1_655  A
C67         C470   1.435       .  S
O68          C74   1.264   1_655  A
O68         Cd71   2.485   1_655  S
C69          O77   1.264       .  A
C69         C400   1.435       .  S
C70          O75   1.264       .  A
C70          O73   1.263       .  A
C70         C426   1.438       .  S
Cd71         O78   2.464       .  S
Cd71         O77   2.464       .  S
Cd71         O76   2.472   1_455  S
Cd71         O72   2.472       .  S
Cd71         O75   2.475   1_455  S
Cd71         O73   2.473   1_455  S
C74          O78   1.263       .  A
C74         C414   1.437       .  S
O79          C82   1.264       .  A
O79         Cd84   2.471       .  S
C80          O89   1.263       .  A
C80          O85   1.263       .  A
C80         C386   1.433       .  S
O81          C87   1.264       .  A
O81         Cd84   2.478       .  S
C82          O90   1.264       .  A
C82         C356   1.435       .  S
C83          O88   1.264       .  A
C83          O86   1.264       .  A
C83         C638   1.434   1_545  S
Cd84         O91   2.448       .  S
Cd84         O90   2.459       .  S
Cd84         O89   2.465       .  S
Cd84         O85   2.464       .  S
Cd84         O88   2.466       .  S
Cd84         O86   2.464       .  S
C87          O91   1.262       .  A
C87         C370   1.432       .  S
O92          C95   1.263       .  A
O92         Cd97   2.461       .  S
C93         O102   1.263       .  A
C93          O98   1.263       .  A
C93         C330   1.434       .  S
O94         C100   1.263       .  A
O94         Cd97   2.476       .  S
C95         O103   1.263       .  A
C95         C384   1.434       .  S
C96         O101   1.264       .  A
C96          O99   1.263       .  A
C96         C344   1.432       .  S
Cd97        O104   2.471       .  S
Cd97        O103   2.470       .  S
Cd97        O102   2.462       .  S
Cd97         O98   2.469       .  S
Cd97        O101   2.468       .  S
Cd97         O99   2.453       .  S
C100        O104   1.263       .  A
C100        C428   1.437   1_545  S
O105        C108   1.263       .  A
O105       Cd110   2.452       .  S
C106        O115   1.263       .  A
C106        O111   1.262       .  A
C106        C372   1.432       .  S
O107        C113   1.264       .  A
O107       Cd110   2.477       .  S
C108        O116   1.264       .  A
C108        C314   1.432       .  S
C109        O114   1.263       .  A
C109        O112   1.263       .  A
C109        C300   1.433   1_655  S
Cd110       O117   2.458       .  S
Cd110       O116   2.466       .  S
Cd110       O115   2.462       .  S
Cd110       O111   2.463       .  S
Cd110       O114   2.469       .  S
Cd110       O112   2.460       .  S
C113        O117   1.262       .  A
C113        C510   1.434       .  S
O118        C121   1.263       .  A
O118       Cd123   2.475       .  S
C119        O128   1.263       .  A
C119        O124   1.264       .  A
C119        C316   1.433       .  S
O120        C126   1.264       .  A
O120       Cd123   2.469       .  S
C121        O129   1.263       .  A
C121        C498   1.436       .  S
C122        O127   1.264       .  A
C122        O125   1.262       .  A
C122        C328   1.433       .  S
Cd123       O130   2.461       .  S
Cd123       O129   2.472       .  S
Cd123       O128   2.462       .  S
Cd123       O124   2.463       .  S
Cd123       O127   2.478       .  S
Cd123       O125   2.451       .  S
C126        O130   1.264       .  A
C126        C286   1.435   1_655  S
O131        C134   1.263       .  A
O131       Cd136   2.468       .  S
C132        O141   1.264       .  A
C132        O137   1.264       .  A
C132        C412   1.437       .  S
O133        C139   1.264       .  A
O133       Cd136   2.474       .  S
C134        O142   1.263       .  A
C134        C272   1.436       .  S
C135        O140   1.264       .  A
C135        O138   1.263       .  A
C135        C288   1.435       .  S
Cd136       O143   2.457       .  S
Cd136       O142   2.477       .  S
Cd136       O141   2.470       .  S
Cd136       O137   2.473       .  S
Cd136       O140   2.476       .  S
Cd136       O138   2.464       .  S
C139        O143   1.263       .  A
C139        C582   1.435       .  S
O144        C147   1.263       .  A
O144       Cd149   2.467       .  S
C145        O154   1.263       .  A
C145        O150   1.265       .  A
C145        C622   1.436       .  S
O146        C152   1.265       .  A
O146       Cd149   2.483       .  S
C147        O155   1.264       .  A
C147        C274   1.437       .  S
C148        O153   1.264       .  A
C148        O151   1.262       .  A
C148        C258   1.437       .  S
Cd149       O156   2.450       .  S
Cd149       O155   2.476       .  S
Cd149       O154   2.458       .  S
Cd149       O150   2.480       .  S
Cd149       O153   2.482       .  S
Cd149       O151   2.468       .  S
C152        O156   1.262       .  A
C152        C440   1.435       .  S
O157        C160   1.263   1_565  A
O157       Cd162   2.460   1_565  S
C158        O167   1.264       .  A
C158        O163   1.263       .  A
C158        C568   1.434       .  S
O159        C165   1.264   1_545  A
O159       Cd162   2.478       .  S
C160        O168   1.263       .  A
C160        C244   1.434       .  S
C161        O166   1.264       .  A
C161        O164   1.263       .  A
C161        C230   1.433       .  S
Cd162       O169   2.447   1_545  S
Cd162       O168   2.468       .  S
Cd162       O167   2.465   1_545  S
Cd162       O163   2.464   1_545  S
Cd162       O166   2.467       .  S
Cd162       O164   2.460       .  S
C165        O169   1.262       .  A
C165        C398   1.433       .  S
O170        C173   1.264   1_565  A
O170       Cd175   2.460   1_565  S
C171        O180   1.262       .  A
C171        O176   1.264       .  A
C171        C456   1.432       .  S
O172        C178   1.264   1_545  A
O172       Cd175   2.471       .  S
C173        O181   1.264       .  A
C173        C246   1.434       .  S
C174        O179   1.263       .  A
C174        O177   1.263       .  A
C174        C302   1.432       .  S
Cd175       O182   2.451   1_545  S
Cd175       O181   2.461       .  S
Cd175       O180   2.455   1_545  S
Cd175       O176   2.469   1_545  S
Cd175       O179   2.463       .  S
Cd175       O177   2.457       .  S
C178        O182   1.263       .  A
C178        C610   1.433       .  S
O183        C186   1.262       .  A
O183       Cd188   2.472       .  S
C184        O193   1.264       .  A
C184        O189   1.263       .  A
C184        C526   1.431       .  S
O185        C191   1.264       .  A
O185       Cd188   2.478       .  S
C186        O194   1.263       .  A
C186        C218   1.434       .  S
C187        O192   1.263       .  A
C187        O190   1.262       .  A
C187        C260   1.437       .  S
Cd188       O195   2.458       .  S
Cd188       O194   2.467       .  S
Cd188       O193   2.456       .  S
Cd188       O189   2.458       .  S
Cd188       O192   2.480       .  S
Cd188       O190   2.470       .  S
C191        O195   1.263       .  A
C191        C358   1.436       .  S
O196        C199   1.263       .  A
O196       Cd201   2.463       .  S
C197        O206   1.264       .  A
C197        O202   1.264       .  A
C197        C342   1.431       .  S
O198        C204   1.264       .  A
O198       Cd201   2.470       .  S
C199        O207   1.263       .  A
C199        C216   1.434       .  S
C200        O205   1.263       .  A
C200        O203   1.262       .  A
C200        C232   1.432       .  S
Cd201       O208   2.451       .  S
Cd201       O207   2.469       .  S
Cd201       O206   2.453       .  S
Cd201       O202   2.459       .  S
Cd201       O205   2.471       .  S
Cd201       O203   2.453       .  S
C204        O208   1.263       .  A
C204        C482   1.432       .  S
C209        C217   1.439       .  S
C209        C210   1.401   1_556  A
C209        C214   1.401       .  A
C210        C211   1.399       .  A
C210        H219   1.084       .  S
C211        C212   1.401       .  A
C211        H220   1.084       .  S
C212        C215   1.439       .  S
C212        C213   1.401       .  A
C213        C214   1.398   1_554  A
C213        H221   1.084       .  S
C214        H222   1.084       .  S
C215        C216   1.205       .  T
C217        C218   1.205       .  T
C223        C231   1.437       .  S
C223        C224   1.401       .  A
C223        C228   1.401       .  A
C224        C225   1.398       .  A
C224        H233   1.084       .  S
C225        C226   1.401       .  A
C225        H234   1.084       .  S
C226        C229   1.437       .  S
C226        C227   1.401       .  A
C227        C228   1.398       .  A
C227        H235   1.084       .  S
C228        H236   1.084       .  S
C229        C230   1.204       .  T
C231        C232   1.204       .  T
C237        C245   1.438       .  S
C237        C238   1.401       .  A
C237        C242   1.401       .  A
C238        C239   1.398       .  A
C238        H247   1.084       .  S
C239        C240   1.401       .  A
C239        H248   1.084       .  S
C240        C243   1.438       .  S
C240        C241   1.401       .  A
C241        C242   1.398       .  A
C241        H249   1.084       .  S
C242        H250   1.084       .  S
C243        C244   1.205       .  T
C245        C246   1.205       .  T
C251        C259   1.441       .  S
C251        C252   1.402       .  A
C251        C256   1.401       .  A
C252        C253   1.400       .  A
C252        H261   1.083       .  S
C253        C254   1.402       .  A
C253        H262   1.084       .  S
C254        C257   1.442       .  S
C254        C255   1.401       .  A
C255        C256   1.399       .  A
C255        H263   1.083       .  S
C256        H264   1.084       .  S
C257        C258   1.207       .  T
C259        C260   1.207       .  T
C265        C273   1.441       .  S
C265        C266   1.401       .  A
C265        C270   1.402       .  A
C266        C267   1.399       .  A
C266        H275   1.084       .  S
C267        C268   1.402       .  A
C267        H276   1.084       .  S
C268        C271   1.441       .  S
C268        C269   1.401       .  A
C269        C270   1.400       .  A
C269        H277   1.084       .  S
C270        H278   1.084       .  S
C271        C272   1.207       .  T
C273        C274   1.207       .  T
C279        C287   1.440       .  S
C279        C280   1.402       .  A
C279        C284   1.401       .  A
C280        C281   1.400       .  A
C280        H289   1.084       .  S
C281        C282   1.402       .  A
C281        H290   1.084       .  S
C282        C285   1.440       .  S
C282        C283   1.401       .  A
C283        C284   1.398       .  A
C283        H291   1.084       .  S
C284        H292   1.084       .  S
C285        C286   1.206       .  T
C287        C288   1.206       .  T
C293        C301   1.437       .  S
C293        C294   1.401       .  A
C293        C298   1.401       .  A
C294        C295   1.398       .  A
C294        H303   1.084       .  S
C295        C296   1.401       .  A
C295        H304   1.083       .  S
C296        C299   1.437       .  S
C296        C297   1.401       .  A
C297        C298   1.397       .  A
C297        H305   1.085       .  S
C298        H306   1.084       .  S
C299        C300   1.204       .  T
C301        C302   1.204       .  T
C307        C315   1.438       .  S
C307        C308   1.401       .  A
C307        C312   1.401       .  A
C308        C309   1.398       .  A
C308        H317   1.084       .  S
C309        C310   1.401   1_554  A
C309        H318   1.084       .  S
C310        C313   1.437       .  S
C310        C311   1.401       .  A
C311        C312   1.398   1_556  A
C311        H319   1.084       .  S
C312        H320   1.084       .  S
C313        C314   1.204       .  T
C315        C316   1.205       .  T
C321        C329   1.438       .  S
C321        C322   1.401       .  A
C321        C326   1.401       .  A
C322        C323   1.397       .  A
C322        H331   1.084       .  S
C323        C324   1.401       .  A
C323        H332   1.084       .  S
C324        C327   1.438       .  S
C324        C325   1.401       .  A
C325        C326   1.399       .  A
C325        H333   1.084       .  S
C326        H334   1.083       .  S
C327        C328   1.205       .  T
C329        C330   1.205       .  T
C335        C343   1.436       .  S
C335        C336   1.400       .  A
C335        C340   1.401       .  A
C336        C337   1.397       .  A
C336        H345   1.084       .  S
C337        C338   1.401       .  A
C337        H346   1.084       .  S
C338        C341   1.436       .  S
C338        C339   1.401       .  A
C339        C340   1.398       .  A
C339        H347   1.084       .  S
C340        H348   1.084       .  S
C341        C342   1.204       .  T
C343        C344   1.204       .  T
C349        C357   1.440       .  S
C349        C350   1.402       .  A
C349        C354   1.401       .  A
C350        C351   1.400       .  A
C350        H359   1.084       .  S
C351        C352   1.402       .  A
C351        H360   1.083       .  S
C352        C355   1.440       .  S
C352        C353   1.401       .  A
C353        C354   1.398       .  A
C353        H361   1.084       .  S
C354        H362   1.084       .  S
C355        C356   1.206       .  T
C357        C358   1.206       .  T
C363        C371   1.437       .  S
C363        C364   1.401       .  A
C363        C368   1.400       .  A
C364        C365   1.398       .  A
C364        H373   1.083       .  S
C365        C366   1.401       .  A
C365        H374   1.084       .  S
C366        C369   1.437       .  S
C366        C367   1.401       .  A
C367        C368   1.397       .  A
C367        H375   1.083       .  S
C368        H376   1.084       .  S
C369        C370   1.204       .  T
C371        C372   1.204       .  T
C377        C385   1.438       .  S
C377        C378   1.401       .  A
C377        C382   1.401       .  A
C378        C379   1.398       .  A
C378        H387   1.084       .  S
C379        C380   1.401       .  A
C379        H388   1.084       .  S
C380        C383   1.438       .  S
C380        C381   1.401       .  A
C381        C382   1.398       .  A
C381        H389   1.084       .  S
C382        H390   1.084       .  S
C383        C384   1.205       .  T
C385        C386   1.205       .  T
C391        C399   1.439       .  S
C391        C392   1.400       .  A
C391        C396   1.402       .  A
C392        C393   1.396       .  A
C392        H401   1.083       .  S
C393        C394   1.400       .  A
C393        H402   1.085       .  S
C394        C397   1.438       .  S
C394        C395   1.402       .  A
C395        C396   1.400       .  A
C395        H403   1.083       .  S
C396        H404   1.084       .  S
C397        C398   1.205       .  T
C399        C400   1.206       .  T
C405        C413   1.442       .  S
C405        C406   1.402       .  A
C405        C410   1.401       .  A
C406        C407   1.401       .  A
C406        H415   1.084       .  S
C407        C408   1.402       .  A
C407        H416   1.084       .  S
C408        C411   1.442       .  S
C408        C409   1.401       .  A
C409        C410   1.398       .  A
C409        H417   1.083       .  S
C410        H418   1.084       .  S
C411        C412   1.207       .  T
C413        C414   1.207       .  T
C419        C427   1.442       .  S
C419        C420   1.402       .  A
C419        C424   1.402       .  A
C420        C421   1.400       .  A
C420        H429   1.084       .  S
C421        C422   1.402       .  A
C421        H430   1.083       .  S
C422        C425   1.442       .  S
C422        C423   1.402       .  A
C423        C424   1.400       .  A
C423        H431   1.083       .  S
C424        H432   1.083       .  S
C425        C426   1.208       .  T
C427        C428   1.207       .  T
C433        C441   1.440       .  S
C433        C434   1.401       .  A
C433        C438   1.401       .  A
C434        C435   1.399       .  A
C434        H443   1.084       .  S
C435        C436   1.401       .  A
C435        H444   1.084       .  S
C436        C439   1.440       .  S
C436        C437   1.402       .  A
C437        C438   1.399       .  A
C437        H445   1.084       .  S
C438        H446   1.083       .  S
C439        C440   1.206       .  T
C441        C442   1.206       .  T
C447        C455   1.437       .  S
C447        C448   1.402       .  A
C447        C452   1.400       .  A
C448        C449   1.399       .  A
C448        H457   1.084       .  S
C449        C450   1.402       .  A
C449        H458   1.084       .  S
C450        C453   1.438       .  S
C450        C451   1.400       .  A
C451        C452   1.397       .  A
C451        H459   1.084       .  S
C452        H460   1.084       .  S
C453        C454   1.205       .  T
C455        C456   1.204       .  T
C461        C469   1.439       .  S
C461        C462   1.402       .  A
C461        C466   1.400   1_655  A
C462        C463   1.400       .  A
C462        H471   1.084       .  S
C463        C464   1.401   1_554  A
C463        H472   1.084       .  S
C464        C467   1.438       .  S
C464        C465   1.401   1_655  A
C465        C466   1.397   1_556  A
C465        H473   1.084       .  S
C466        H474   1.084       .  S
C467        C468   1.205       .  T
C469        C470   1.206       .  T
C475        C483   1.436       .  S
C475        C476   1.401       .  A
C475        C480   1.400       .  A
C476        C477   1.398       .  A
C476        H485   1.084       .  S
C477        C478   1.401       .  A
C477        H486   1.084       .  S
C478        C481   1.437       .  S
C478        C479   1.400       .  A
C479        C480   1.397       .  A
C479        H487   1.084       .  S
C480        H488   1.083       .  S
C481        C482   1.204       .  T
C483        C484   1.204       .  T
C489        C497   1.441       .  S
C489        C490   1.402       .  A
C489        C494   1.401       .  A
C490        C491   1.400       .  A
C490        H499   1.083       .  S
C491        C492   1.402       .  A
C491        H500   1.084       .  S
C492        C495   1.440       .  S
C492        C493   1.401       .  A
C493        C494   1.399       .  A
C493        H501   1.084       .  S
C494        H502   1.084       .  S
C495        C496   1.206       .  T
C497        C498   1.207       .  T
C503        C511   1.438       .  S
C503        C504   1.401       .  A
C503        C508   1.401       .  A
C504        C505   1.399       .  A
C504        H513   1.084       .  S
C505        C506   1.401       .  A
C505        H514   1.084       .  S
C506        C509   1.439       .  S
C506        C507   1.401       .  A
C507        C508   1.398       .  A
C507        H515   1.085       .  S
C508        H516   1.083       .  S
C509        C510   1.205       .  T
C511        C512   1.205       .  T
C517        C525   1.436       .  S
C517        C518   1.400       .  A
C517        C522   1.401       .  A
C518        C519   1.397       .  A
C518        H527   1.083       .  S
C519        C520   1.401       .  A
C519        H528   1.084       .  S
C520        C523   1.436       .  S
C520        C521   1.401       .  A
C521        C522   1.398       .  A
C521        H529   1.084       .  S
C522        H530   1.084       .  S
C523        C524   1.204       .  T
C525        C526   1.204       .  T
C531        C539   1.437       .  S
C531        C532   1.401       .  A
C531        C536   1.401       .  A
C532        C533   1.398       .  A
C532        H541   1.083       .  S
C533        C534   1.401       .  A
C533        H542   1.084       .  S
C534        C537   1.437       .  S
C534        C535   1.401       .  A
C535        C536   1.398       .  A
C535        H543   1.083       .  S
C536        H544   1.084       .  S
C537        C538   1.204       .  T
C539        C540   1.204       .  T
C545        C553   1.437       .  S
C545        C546   1.401       .  A
C545        C550   1.400       .  A
C546        C547   1.399       .  A
C546        H555   1.084       .  S
C547        C548   1.401       .  A
C547        H556   1.084       .  S
C548        C551   1.436       .  S
C548        C549   1.400       .  A
C549        C550   1.397       .  A
C549        H557   1.084       .  S
C550        H558   1.084       .  S
C551        C552   1.204       .  T
C553        C554   1.204       .  T
C559        C567   1.439       .  S
C559        C560   1.401       .  A
C559        C564   1.401       .  A
C560        C561   1.398       .  A
C560        H569   1.083       .  S
C561        C562   1.401       .  A
C561        H570   1.084       .  S
C562        C565   1.439       .  S
C562        C563   1.402       .  A
C563        C564   1.399       .  A
C563        H571   1.084       .  S
C564        H572   1.084       .  S
C565        C566   1.206       .  T
C567        C568   1.205       .  T
C573        C581   1.439       .  S
C573        C574   1.402       .  A
C573        C578   1.401       .  A
C574        C575   1.399       .  A
C574        H583   1.085       .  S
C575        C576   1.401       .  A
C575        H584   1.083       .  S
C576        C579   1.439       .  S
C576        C577   1.401       .  A
C577        C578   1.398       .  A
C577        H585   1.084       .  S
C578        H586   1.084       .  S
C579        C580   1.206       .  T
C581        C582   1.206       .  T
C587        C595   1.441       .  S
C587        C588   1.402       .  A
C587        C592   1.401       .  A
C588        C589   1.400       .  A
C588        H597   1.084       .  S
C589        C590   1.402       .  A
C589        H598   1.083       .  S
C590        C593   1.441       .  S
C590        C591   1.401       .  A
C591        C592   1.399       .  A
C591        H599   1.084       .  S
C592        H600   1.083       .  S
C593        C594   1.207       .  T
C595        C596   1.206       .  T
C601        C609   1.437       .  S
C601        C602   1.401       .  A
C601        C606   1.401       .  A
C602        C603   1.398       .  A
C602        H611   1.083       .  S
C603        C604   1.401       .  A
C603        H612   1.084       .  S
C604        C607   1.436       .  S
C604        C605   1.400       .  A
C605        C606   1.397       .  A
C605        H613   1.083       .  S
C606        H614   1.084       .  S
C607        C608   1.203       .  T
C609        C610   1.204       .  T
C615        C623   1.440       .  S
C615        C616   1.401       .  A
C615        C620   1.402       .  A
C616        C617   1.399       .  A
C616        H625   1.084       .  S
C617        C618   1.402       .  A
C617        H626   1.083       .  S
C618        C621   1.441       .  S
C618        C619   1.401       .  A
C619        C620   1.400       .  A
C619        H627   1.084       .  S
C620        H628   1.083       .  S
C621        C622   1.206       .  T
C623        C624   1.206       .  T
C629        C637   1.439       .  S
C629        C630   1.402       .  A
C629        C634   1.401       .  A
C630        C631   1.400       .  A
C630        H639   1.084       .  S
C631        C632   1.402       .  A
C631        H640   1.084       .  S
C632        C635   1.439       .  S
C632        C633   1.400       .  A
C633        C634   1.397       .  A
C633        H641   1.084       .  S
C634        H642   1.083       .  S
C635        C636   1.205       .  T
C637        C638   1.205       .  T
C643        C651   1.439       .  S
C643        C644   1.401       .  A
C643        C648   1.402       .  A
C644        C645   1.397   1_554  A
C644        H653   1.084       .  S
C645        C646   1.401       .  A
C645        H654   1.084       .  S
C646        C649   1.438       .  S
C646        C647   1.401   1_556  A
C647        C648   1.399       .  A
C647        H655   1.084       .  S
C648        H656   1.084       .  S
C649        C650   1.205       .  T
C651        C652   1.205       .  T
