geometry optimzed in LAMMPS
_audit_creation_date              2020-12-01 
_audit_creation_method            'lammps2cif' 
_symmetry_space_group_name_H-M    'P1' 
_symmetry_Int_Tables_number       1 
_symmetry_cell_setting            triclinic 
loop_ 
_symmetry_equiv_pos_as_xyz 
  x,y,z 
_cell_length_a                    44.68218983 
_cell_length_b                    44.78455807052111 
_cell_length_c                    30.861944079703058 
_cell_angle_alpha                 89.8837074613704 
_cell_angle_beta                  90.1640800245171 
_cell_angle_gamma                 90.16004169946919 
loop_ 
_atom_site_label 
_atom_site_type_symbol 
_atom_site_fract_x 
_atom_site_fract_y 
_atom_site_fract_z 
_atom_site_charge 
In1        In  0.49528710  0.36740164  0.98922637     1.36900
C2          C  0.45731101  0.34004808  0.04113868     0.76900
O3          O  0.45824408  0.36788366  0.93985078    -0.61500
O4          O  0.49809774  0.34485165  0.92458990    -0.52400
C5          C  0.50524789  0.42533285  0.98305872     0.69600
O6          O  0.48464909  0.41461370  0.00620939    -0.47300
C7          C  0.54549998  0.34858327  0.02604711     0.74300
O8          O  0.47345330  0.32646293  0.01434050    -0.59200
O9          O  0.53693615  0.33933777  0.98947592    -0.49200
O10         O  0.46060584  0.36799628  0.04173945    -0.55600
C11         C  0.47173445  0.35128663  0.91336547     0.84500
O12         O  0.52017683  0.40633946  0.96215807    -0.57500
O13         O  0.52874232  0.36776083  0.04308327    -0.60800
In14       In  0.53956844  0.60895985  0.96790096     1.36900
C15         C  0.56967860  0.63778865  0.90659581     0.76900
O16         O  0.50552627  0.60024637  0.91748235    -0.61500
O17         O  0.49309732  0.62819783  0.96979544    -0.52400
C18         C  0.53373570  0.55088986  0.98042486     0.69600
O19         O  0.55017771  0.56190224  0.95124688    -0.47300
C20         C  0.56463297  0.63223903  0.03827897     0.74300
O21         O  0.57725483  0.61211414  0.91948547    -0.59200
O22         O  0.53870776  0.63923598  0.02559598    -0.49200
O23         O  0.54743165  0.64859954  0.92583089    -0.55600
C24         C  0.48576842  0.61673643  0.93386011     0.84500
O25         O  0.52149425  0.56984097  0.00482148    -0.57500
O26         O  0.57712261  0.61223078  0.01613422    -0.60800
In27       In  0.00775374  0.36931269  0.46573345     1.36900
C28         C  0.97685995  0.34623581  0.40056433     0.76900
O29         O  0.04442401  0.37400033  0.41711404    -0.61500
O30         O  0.04900071  0.34115310  0.46647504    -0.52400
C31         C  0.01703894  0.42732292  0.47960038     0.69600
O32         O  0.99737721  0.41751013  0.45398060    -0.47300
C33         C  0.98215330  0.34471962  0.53559148     0.74300
O34         O  0.97168284  0.37220411  0.41437145    -0.59200
O35         O  0.96794358  0.36072617  0.50896207    -0.49200
O36         O  0.99623523  0.33196691  0.42163036    -0.55600
C37         C  0.05940297  0.35252909  0.43219506     0.84500
O38         O  0.03123032  0.40720470  0.49956130    -0.57500
O39         O  0.00963127  0.34273745  0.52733901    -0.60800
In40       In  0.05620886  0.61097068  0.50930265     1.36900
C41         C  0.09250788  0.64090278  0.56146065     0.76900
O42         O  0.09333535  0.61327385  0.46076634    -0.61500
O43         O  0.05363471  0.63751922  0.44740851    -0.52400
C44         C  0.04763989  0.55283803  0.49639427     0.69600
O45         O  0.06692207  0.56289314  0.52258788    -0.47300
C46         C  0.00653082  0.62459390  0.55223046     0.74300
O47         O  0.09276902  0.61268716  0.56028916    -0.59200
O48         O  0.01134170  0.63426423  0.51435597    -0.49200
O49         O  0.07403155  0.65313572  0.53628651    -0.55600
C50         C  0.08020670  0.63172575  0.43630508     0.87700
O51         O  0.03345597  0.57275187  0.47586912    -0.57500
O52         O  0.02635106  0.60709417  0.56622466    -0.60800
In53       In  0.65733563  0.26621212  0.20495696     1.36900
C54         C  0.62852845  0.29623675  0.14367707     0.76900
O55         O  0.66671076  0.23414895  0.15164200    -0.61500
O56         O  0.63788750  0.21996064  0.20206314    -0.52400
C57         C  0.71524530  0.26013518  0.21994560     0.69600
O58         O  0.70502357  0.27928371  0.19377226    -0.47300
C59         C  0.63131718  0.28743495  0.27602259     0.74300
O60         O  0.65444343  0.30401190  0.15582993    -0.59200
O61         O  0.62789271  0.26093318  0.26320140    -0.49200
O62         O  0.61731681  0.27494033  0.16475931    -0.55600
C63         C  0.64986598  0.21384053  0.16613079     0.84500
O64         O  0.69565793  0.24601118  0.24109361    -0.57500
O65         O  0.64963910  0.30254050  0.25387128    -0.60800
In66       In  0.89810076  0.22144197  0.24720363     1.36900
C67         C  0.92706851  0.18516989  0.30040873     0.76900
O68         O  0.89538485  0.18409265  0.19913324    -0.61500
O69         O  0.92143066  0.22254564  0.18367842    -0.52400
C70         C  0.84044282  0.23207840  0.23906665     0.69600
O71         O  0.85042285  0.21204940  0.26401146    -0.47300
C72         C  0.91767242  0.27227129  0.27986491     0.74300
O73         O  0.89929536  0.18950816  0.30384456    -0.59200
O74         O  0.92701147  0.26223502  0.24428147    -0.49200
O75         O  0.93956229  0.19938821  0.27033330    -0.55600
C76         C  0.91335308  0.19652678  0.17321004     0.84500
O77         O  0.85999902  0.24547200  0.21683623    -0.57500
O78         O  0.89738245  0.25700872  0.29749681    -0.60800
In79       In  0.55998952  0.10587889  0.99365906     1.36900
C80         C  0.59859112  0.13050435  0.04923473     0.76900
O81         O  0.59237076  0.10551586  0.93788783    -0.61500
O82         O  0.55753556  0.13751237  0.93765299    -0.52400
C83         C  0.55038425  0.04803764  0.98029024     0.69600
O84         O  0.57249843  0.05776324  0.00162447    -0.47300
C85         C  0.50885050  0.12174899  0.03069694     0.74300
O86         O  0.59000850  0.10380864  0.05298857    -0.59200
O87         O  0.51580685  0.12984974  0.99288901    -0.49200
O88         O  0.58799444  0.14401287  0.01696904    -0.55600
C89         C  0.58044731  0.12755648  0.91886590     0.84500
O90         O  0.53447208  0.06814733  0.96338018    -0.57500
O91         O  0.52776769  0.10518060  0.04886755    -0.60800
In92       In  0.50989208  0.86434692  0.97144612     1.36900
C93         C  0.48034004  0.83403872  0.91109181     0.76900
O94         O  0.54417885  0.86991756  0.92032388    -0.61500
O95         O  0.55463509  0.84188090  0.97371476    -0.52400
C96         C  0.51749955  0.92274563  0.98254704     0.69600
O97         O  0.49725135  0.91213135  0.95835777    -0.47300
C98         C  0.48541640  0.84325026  0.04365606     0.74300
O99         O  0.47527606  0.86138009  0.91794499    -0.59200
O100        O  0.51261559  0.83951119  0.03439898    -0.49200
O101        O  0.49909619  0.82239606  0.93642187    -0.55600
C102        C  0.56276804  0.85236263  0.93759155     0.84500
O103        O  0.53240614  0.90327995  0.00262585    -0.57500
O104        O  0.47120370  0.85900535  0.01673435    -0.60800
In105      In  0.89789077  0.71510943  0.72695661     1.36900
C106        C  0.92538151  0.67971635  0.67089455     0.76900
O107        O  0.89673251  0.74790940  0.67291256    -0.61500
O108        O  0.92263548  0.75885716  0.72852386    -0.52400
C109        C  0.83972305  0.72320098  0.73952128     0.69600
O110        O  0.85002677  0.70179986  0.71771055    -0.47300
C111        C  0.91770586  0.69100822  0.80050795     0.74300
O112        O  0.89760469  0.68448365  0.66854667    -0.59200
O113        O  0.92543552  0.71665589  0.78774062    -0.49200
O114        O  0.93848125  0.69295271  0.70145806    -0.55600
C115        C  0.91428228  0.76612615  0.69086113     0.84500
O116        O  0.85947047  0.73974462  0.75637482    -0.57500
O117        O  0.89849894  0.67847314  0.77650668    -0.60800
In118      In  0.65585430  0.76365568  0.75611513     1.36900
C119        C  0.64395836  0.80117719  0.82024985     0.76900
O120        O  0.65556346  0.79677531  0.70132625    -0.61500
O121        O  0.62326431  0.76210778  0.70049075    -0.52400
C122        C  0.71402662  0.75350609  0.74647146     0.69600
O123        O  0.70380702  0.77212744  0.77311532    -0.47300
C124        C  0.62645154  0.71599218  0.78512891     0.74300
O125        O  0.65579096  0.77604600  0.82672404    -0.59200
O126        O  0.61429109  0.74097962  0.77917343    -0.49200
O127        O  0.64037463  0.80759093  0.78089005    -0.55600
C128        C  0.63272594  0.78582907  0.68322515     0.84500
O129        O  0.69435501  0.74037967  0.72400841    -0.57500
O130        O  0.65349834  0.71486485  0.77367941    -0.60800
In131      In  0.05433368  0.10444725  0.45849991     1.36900
C132        C  0.09448614  0.12847803  0.40592552     0.76900
O133        O  0.02486104  0.10438831  0.40081107    -0.61500
O134        O  0.01393560  0.13379872  0.45220118    -0.52400
C135        C  0.04027564  0.04782266  0.47291924     0.69600
O136        O  0.06534687  0.05574449  0.45787306    -0.47300
C137        C  0.07491587  0.12324394  0.53399686     0.74300
O138        O  0.08625148  0.10162230  0.40201490    -0.59200
O139        O  0.04944561  0.13058439  0.51964632    -0.49200
O140        O  0.08274312  0.14227837  0.43695373    -0.55600
C141        C  0.00763183  0.12440888  0.41470218     0.84500
O142        O  0.02312266  0.06917371  0.48185480    -0.57500
O143        O  0.08850554  0.10442505  0.51101207    -0.60800
In144      In  0.99866251  0.86664274  0.50332082     1.36900
C145        C  0.96984062  0.84275937  0.56941225     0.76900
O146        O  0.95898991  0.85621217  0.46123665    -0.61500
O147        O  0.00052123  0.83704590  0.44452401    -0.52400
C148        C  0.00614312  0.92330742  0.48282141     0.69600
O149        O  0.98752563  0.91484198  0.51105503    -0.47300
C150        C  0.05163342  0.86161800  0.54122721     0.74300
O151        O  0.96196174  0.86739593  0.55301513    -0.59200
O152        O  0.04402927  0.84511480  0.50973910    -0.49200
O153        O  0.99141263  0.83010096  0.55085740    -0.55600
C154        C  0.97296486  0.83916138  0.43592015     0.84500
O155        O  0.01817693  0.90239641  0.46190019    -0.57500
O156        O  0.03268894  0.88120838  0.55111473    -0.60800
In157      In  0.15533177  0.77739569  0.72077161     1.36900
C158        C  0.13233948  0.81522177  0.66395626     0.76900
O159        O  0.15822051  0.74915591  0.66162795    -0.61500
O160        O  0.13274872  0.73239429  0.71394793    -0.52400
C161        C  0.21246841  0.76746374  0.73914842     0.69600
O162        O  0.20388483  0.79050185  0.71912417    -0.47300
C163        C  0.13009538  0.79764736  0.79342107     0.74300
O164        O  0.16015184  0.81071499  0.66633821    -0.59200
O165        O  0.12470765  0.77216867  0.77785266    -0.49200
O166        O  0.11677035  0.80109975  0.69113206    -0.55600
C167        C  0.14196067  0.72835091  0.67577545     0.84500
O168        O  0.19161120  0.75070373  0.75203102    -0.57500
O169        O  0.14976813  0.81210882  0.77277639    -0.60800
In170      In  0.39075541  0.70906602  0.75687552     1.36900
C171        C  0.40626737  0.66801418  0.81487723     0.76900
O172        O  0.38899985  0.67420578  0.70476188    -0.61500
O173        O  0.41547554  0.71285039  0.69367232    -0.52400
C174        C  0.33445279  0.72573699  0.74433238     0.69600
O175        O  0.34138958  0.70180526  0.76345362    -0.47300
C176        C  0.41895878  0.75456375  0.79511038     0.74300
O177        O  0.42023826  0.67237187  0.78014786    -0.59200
O178        O  0.43063273  0.73972578  0.76493202    -0.49200
O179        O  0.38332286  0.68391309  0.81944971    -0.55600
C180        C  0.40706376  0.68759936  0.67999041     0.84500
O181        O  0.35639150  0.74031368  0.72957887    -0.57500
O182        O  0.39288377  0.74644475  0.80478937    -0.60800
In183      In  0.15695016  0.26140434  0.24706274     1.36900
C184        C  0.13242047  0.29397671  0.30868135     0.76900
O185        O  0.15170663  0.29830901  0.19850892    -0.61500
O186        O  0.12611994  0.25895738  0.18945073    -0.52400
C187        C  0.21381845  0.25081002  0.22929774     0.69600
O188        O  0.20571700  0.27118279  0.25492294    -0.47300
C189        C  0.14725641  0.21056412  0.28870305     0.74300
O190        O  0.15853453  0.29942743  0.29511947    -0.59200
O191        O  0.13450213  0.21662721  0.25310118    -0.49200
O192        O  0.11874050  0.27358174  0.28874395    -0.55600
C193        C  0.13230609  0.28486835  0.17600627     0.84500
O194        O  0.19264002  0.23715437  0.21076507    -0.57500
O195        O  0.16557455  0.23013250  0.30149125    -0.60800
In196      In  0.39550701  0.20916614  0.20072860     1.36900
C197        C  0.42478915  0.17743247  0.14241144     0.76900
O198        O  0.38478711  0.23969933  0.14645738    -0.61500
O199        O  0.41515920  0.25525745  0.19466996    -0.52400
C200        C  0.33764170  0.21579806  0.21574825     0.69600
O201        O  0.34740705  0.19760924  0.18793123    -0.47300
C202        C  0.41851589  0.18770102  0.27429540     0.74300
O203        O  0.39943172  0.16936225  0.15628295    -0.59200
O204        O  0.42430546  0.21369191  0.26054980    -0.49200
O205        O  0.43530824  0.20063478  0.15968107    -0.55600
C206        C  0.40222276  0.26018509  0.15879259     0.84500
O207        O  0.35766439  0.22937377  0.23691643    -0.57500
O208        O  0.40075020  0.17315571  0.25051555    -0.60800
In209      In  0.88877827  0.75116520  0.22633495     1.36900
C210        C  0.91623044  0.78798499  0.17244712     0.76900
O211        O  0.88866869  0.78635008  0.27801161    -0.61500
O212        O  0.91923218  0.75048937  0.28445943    -0.52400
C213        C  0.83086443  0.74246833  0.23831575     0.69600
O214        O  0.84119331  0.76325973  0.21499978    -0.47300
C215        C  0.90066912  0.70030333  0.18605338     0.74300
O216        O  0.88808028  0.78570249  0.17315560    -0.59200
O217        O  0.90818996  0.70483449  0.22503120    -0.49200
O218        O  0.92994708  0.77143062  0.19882519    -0.55600
C219        C  0.91008311  0.77514055  0.29917285     0.84500
O220        O  0.85052812  0.72738156  0.25786490    -0.57500
O221        O  0.88684022  0.72161946  0.16867978    -0.60800
In222      In  0.64415905  0.71667050  0.25492667     1.36900
C223        C  0.61299738  0.69118196  0.31821435     0.76900
O224        O  0.64919571  0.75449842  0.30111013    -0.61500
O225        O  0.62274586  0.76138310  0.24470875    -0.52400
C226        C  0.70290157  0.72221608  0.24593317     0.69600
O227        O  0.69124169  0.70525622  0.27392876    -0.47300
C228        C  0.62257004  0.68822409  0.18564539     0.74300
O229        O  0.64031070  0.68531239  0.31215175    -0.59200
O230        O  0.61926969  0.71580602  0.19208120    -0.49200
O231        O  0.60181486  0.70865286  0.29066754    -0.55600
C232        C  0.63210615  0.77169250  0.28029511     0.84500
O233        O  0.68440488  0.73434867  0.22057611    -0.57500
O234        O  0.63851239  0.67544598  0.21386523    -0.60800
In235      In  0.99405537  0.10579424  0.96553213     1.36900
C236        C  0.96293286  0.11931204  0.89476759     0.76900
O237        O  0.95679687  0.11155996  0.01353790    -0.61500
O238        O  0.99704699  0.13567509  0.02332254    -0.52400
C239        C  0.00354426  0.04890911  0.98409277     0.69600
O240        O  0.98136040  0.05743206  0.96203143    -0.47300
C241        C  0.04333903  0.13231226  0.93642933     0.74300
O242        O  0.98597074  0.10334066  0.89373724    -0.59200
O243        O  0.02284779  0.14635372  0.95566320    -0.49200
O244        O  0.95412774  0.12573111  0.93227233    -0.55600
C245        C  0.97072592  0.13058467  0.03607678     0.84500
O246        O  0.01936280  0.06968797  0.99949818    -0.57500
O247        O  0.03943293  0.10448581  0.93529611    -0.60800
In248      In  0.04413334  0.86700745  0.01424617     1.36900
C249        C  0.08355285  0.83869037  0.06253858     0.76900
O250        O  0.01629154  0.86602134  0.07373284    -0.61500
O251        O  0.00036753  0.84222315  0.01899519    -0.52400
C252        C  0.03138949  0.92403406  0.00359846     0.69600
O253        O  0.05392006  0.91533195  0.02489542    -0.47300
C254        C  0.06788315  0.85027178  0.93949106     0.74300
O255        O  0.08071733  0.86673618  0.06469502    -0.59200
O256        O  0.04241997  0.84138156  0.95191775    -0.49200
O257        O  0.06596314  0.82573943  0.03671843    -0.55600
C258        C  0.99633417  0.84915774  0.05822716     0.84500
O259        O  0.01623604  0.90350209  0.98611208    -0.57500
O260        O  0.08017919  0.86907973  0.96419916    -0.60800
In261      In  0.05502739  0.36664768  0.95633903     1.36900
C262        C  0.09104171  0.35478024  0.89037397     0.76900
O263        O  0.08794998  0.36538989  0.01135719    -0.61500
O264        O  0.05211023  0.33418094  0.01174429    -0.52400
C265        C  0.04550610  0.42323908  0.97518110     0.69600
O266        O  0.06582878  0.41512951  0.94953036    -0.47300
C267        C  0.00582386  0.34079176  0.92426089     0.74300
O268        O  0.06794704  0.37049641  0.88631389    -0.59200
O269        O  0.02696440  0.32636229  0.94147660    -0.49200
O270        O  0.09694197  0.34723138  0.92873341    -0.55600
C271        C  0.07549609  0.34366084  0.03021442     0.84500
O272        O  0.03074651  0.40220183  0.99205720    -0.57500
O273        O  0.00925735  0.36868095  0.92584499    -0.60800
In274      In  0.99478427  0.60060090  0.01382066     1.36900
C275        C  0.95766543  0.62005172  0.07386068     0.76900
O276        O  0.02697067  0.59241940  0.06736661    -0.61500
O277        O  0.03931040  0.62327178  0.01798779    -0.52400
C278        C  0.00744616  0.54494272  0.99437314     0.69600
O279        O  0.98710878  0.55178482  0.02085213    -0.47300
C280        C  0.97313478  0.62708419  0.94313163     0.74300
O281        O  0.98117457  0.63361170  0.06320888    -0.59200
O282        O  0.99527349  0.63723498  0.96388218    -0.49200
O283        O  0.95244475  0.59628741  0.05330853    -0.55600
C284        C  0.04618344  0.61072897  0.05337824     0.84500
O285        O  0.02014436  0.56680870  0.97628526    -0.57500
O286        O  0.96258798  0.60320066  0.95839141    -0.60800
In287      In  0.15960684  0.70526982  0.21162634     1.36900
C288        C  0.13173946  0.66616680  0.16206328     0.76900
O289        O  0.15788759  0.66990529  0.26300516    -0.61500
O290        O  0.13455675  0.71017858  0.27430724    -0.52400
C291        C  0.21747086  0.71559697  0.22221612     0.69600
O292        O  0.20769478  0.69532791  0.19758162    -0.47300
C293        C  0.14422327  0.75426852  0.16855654     0.74300
O294        O  0.15993728  0.66775746  0.16312424    -0.59200
O295        O  0.13484654  0.74876287  0.20627631    -0.49200
O296        O  0.11826233  0.68444404  0.18595067    -0.55600
C297        C  0.14059751  0.68417784  0.28762579     0.84500
O298        O  0.19756176  0.72974391  0.24243387    -0.57500
O299        O  0.16169713  0.73487478  0.15361105    -0.60800
In300      In  0.40039831  0.75176294  0.24869498     1.36900
C301        C  0.42880991  0.77983048  0.31204461     0.76900
O302        O  0.39258826  0.71827269  0.29956272    -0.61500
O303        O  0.41474908  0.70384017  0.24240268    -0.52400
C304        C  0.34257932  0.74715551  0.23176887     0.69600
O305        O  0.35279565  0.76365013  0.26151241    -0.47300
C306        C  0.42714210  0.77911766  0.18302154     0.74300
O307        O  0.40266603  0.78701253  0.30035309    -0.59200
O308        O  0.43283927  0.75247718  0.19348650    -0.49200
O309        O  0.44008231  0.75845243  0.29126630    -0.55600
C310        C  0.40463346  0.69706179  0.27943177     0.84500
O311        O  0.36226792  0.73473753  0.20889650    -0.57500
O312        O  0.40646138  0.79091919  0.20475082    -0.60800
In313      In  0.50543497  0.11067176  0.49241468     1.36900
C314        C  0.47942386  0.13993664  0.55728107     0.76900
O315        O  0.54369466  0.10754168  0.53864639    -0.61500
O316        O  0.54979344  0.13267556  0.48099902    -0.52400
C317        C  0.51100159  0.05160281  0.48172585     0.69600
O318        O  0.49305734  0.06282439  0.50859444    -0.47300
C319        C  0.47787812  0.13445976  0.42327086     0.74300
O320        O  0.49792826  0.15163250  0.53170813    -0.59200
O321        O  0.50557037  0.13652041  0.43002849    -0.49200
O322        O  0.47319583  0.11302349  0.54890490    -0.55600
C323        C  0.56066091  0.12427239  0.51671280     0.84500
O324        O  0.52491144  0.07068631  0.45948892    -0.57500
O325        O  0.46437676  0.11847391  0.45073559    -0.60800
In326      In  0.55316664  0.86787417  0.46374431     1.36900
C327        C  0.58593114  0.85738548  0.39375593     0.76900
O328        O  0.58950101  0.86496139  0.51403748    -0.61500
O329        O  0.55197507  0.83665855  0.52131707    -0.52400
C330        C  0.54119254  0.92564418  0.47577558     0.69600
O331        O  0.56121853  0.91645453  0.45044963    -0.47300
C332        C  0.50645344  0.83693530  0.43479743     0.74300
O333        O  0.56012357  0.86850119  0.39197892    -0.59200
O334        O  0.53184586  0.82553391  0.44100396    -0.49200
O335        O  0.59624949  0.85456914  0.43160293    -0.55600
C336        C  0.57752891  0.84401721  0.53513779     0.84500
O337        O  0.52800391  0.90513530  0.49634634    -0.57500
O338        O  0.50430766  0.86372749  0.44698149    -0.60800
In339      In  0.14735777  0.21551499  0.74711122     1.36900
C340        C  0.11931431  0.18859778  0.81177026     0.76900
O341        O  0.15266690  0.25127850  0.79597196    -0.61500
O342        O  0.12697241  0.26090894  0.73957128    -0.52400
C343        C  0.20514754  0.22253491  0.73076434     0.69600
O344        O  0.19553777  0.20468981  0.75926220    -0.47300
C345        C  0.12494231  0.18605681  0.68027169     0.74300
O346        O  0.14648973  0.18341364  0.80350432    -0.59200
O347        O  0.11744943  0.21249721  0.68896269    -0.49200
O348        O  0.10653421  0.20593776  0.78551071    -0.55600
C349        C  0.13641292  0.26975424  0.77600563     0.84500
O350        O  0.18495581  0.23595526  0.70977930    -0.57500
O351        O  0.14482054  0.17522942  0.70466011    -0.60800
In352      In  0.38802571  0.26573580  0.70204323     1.36900
C353        C  0.39825788  0.30060284  0.63430886     0.76900
O354        O  0.38699529  0.30024517  0.75502834    -0.61500
O355        O  0.42118569  0.26757446  0.75656697    -0.52400
C356        C  0.33027131  0.25357805  0.71295598     0.69600
O357        O  0.33986808  0.27147694  0.68465296    -0.47300
C358        C  0.41902874  0.21886021  0.67404917     0.74300
O359        O  0.38477233  0.27594597  0.63120747    -0.59200
O360        O  0.42925494  0.24504355  0.67492114    -0.49200
O361        O  0.40363957  0.30872879  0.67263276    -0.55600
C362        C  0.41036855  0.29076740  0.77336067     0.84500
O363        O  0.35042674  0.24193143  0.73618186    -0.57500
O364        O  0.39357627  0.21616063  0.69117430    -0.60800
In365      In  0.48456318  0.60192574  0.46231805     1.36900
C366        C  0.45049796  0.61335751  0.39351551     0.76900
O367        O  0.44627615  0.61198410  0.50751065    -0.61500
O368        O  0.48911683  0.62792888  0.52449982    -0.52400
C369        C  0.49423376  0.54349169  0.47306326     0.69600
O370        O  0.47611497  0.55385049  0.44573527    -0.47300
C371        C  0.53236094  0.63233038  0.43508833     0.74300
O372        O  0.43992220  0.61045790  0.43113010    -0.59200
O373        O  0.50876776  0.64484309  0.44814159    -0.49200
O374        O  0.47817494  0.60879835  0.39114937    -0.55600
C375        C  0.46167384  0.62720871  0.53370271     0.84500
O376        O  0.50649925  0.56309208  0.49642309    -0.57500
O377        O  0.53194856  0.60427409  0.43858519    -0.60800
In378      In  0.53700743  0.36083077  0.48841795     1.36900
C379        C  0.56366433  0.33352013  0.55430981     0.76900
O380        O  0.49831390  0.36767397  0.53235533    -0.61500
O381        O  0.49433906  0.33407852  0.48442730    -0.52400
C382        C  0.52962489  0.41917743  0.47639785     0.69600
O383        O  0.54772141  0.40860333  0.50383583    -0.47300
C384        C  0.56707330  0.34058798  0.41970789     0.74300
O385        O  0.56881149  0.36060525  0.54540114    -0.59200
O386        O  0.53897250  0.33868663  0.42293127    -0.49200
O387        O  0.54603705  0.32060274  0.52851427    -0.55600
C388        C  0.48270157  0.34681658  0.51673917     0.84500
O389        O  0.51677317  0.39974687  0.45328833    -0.57500
O390        O  0.57951178  0.35344935  0.45125701    -0.60800
In391      In  0.90030888  0.25110798  0.74163832     1.36900
C392        C  0.92713681  0.28115450  0.80541460     0.76900
O393        O  0.89451612  0.21513078  0.79033805    -0.61500
O394        O  0.92253789  0.20623482  0.73630389    -0.52400
C395        C  0.84230521  0.24139735  0.73021004     0.69600
O396        O  0.85238582  0.25995474  0.75740734    -0.47300
C397        C  0.92240493  0.27760260  0.67108848     0.74300
O398        O  0.90118791  0.28796081  0.79247471    -0.59200
O399        O  0.93295704  0.25381116  0.68661124    -0.49200
O400        O  0.93927141  0.26061576  0.78419520    -0.55600
C401        C  0.91205486  0.19719024  0.77203675     0.84500
O402        O  0.86203410  0.22925141  0.70698251    -0.57500
O403        O  0.89968425  0.28727556  0.69063006    -0.60800
In404      In  0.65703707  0.20928021  0.69780450     1.36900
C405        C  0.64394422  0.17626557  0.62871030     0.76900
O406        O  0.65414335  0.17196066  0.74620692    -0.61500
O407        O  0.62899403  0.21109136  0.75829177    -0.52400
C408        C  0.71505755  0.21912445  0.71194647     0.69600
O409        O  0.70550378  0.19967254  0.68588263    -0.47300
C410        C  0.62673421  0.25702269  0.67154469     0.74300
O411        O  0.65547799  0.20182685  0.62566818    -0.59200
O412        O  0.61426792  0.23411959  0.68720599    -0.49200
O413        O  0.64085413  0.16708663  0.66700868    -0.55600
C414        C  0.63590090  0.18512037  0.77065130     0.84500
O415        O  0.69472892  0.23279052  0.73193249    -0.57500
O416        O  0.65492894  0.25617476  0.67244037    -0.60800
C417        C  0.80993111  0.23464104  0.72635572    -0.06800
C418        C  0.78946341  0.25621533  0.74051055    -0.17900
C419        C  0.75858086  0.25202082  0.73604837     0.10400
C420        C  0.74745511  0.22517883  0.71790280    -0.06700
C421        C  0.76794745  0.20332666  0.70453774    -0.17900
C422        C  0.79884519  0.20752885  0.70902662     0.10400
S423        S  0.73494274  0.28256711  0.75206206    -0.32900
S424        S  0.82259228  0.17682229  0.69383651    -0.32900
H425        H  0.84104940  0.17905130  0.73072339     0.28500
H426        H  0.71853503  0.28262176  0.71304692     0.28400
H427        H  0.79758497  0.27705635  0.75393672     0.19000
H428        H  0.75984545  0.18244332  0.69117130     0.19000
C429        C  0.57756558  0.31764592  0.59114991    -0.06800
C430        C  0.60690338  0.32504740  0.60340934    -0.17900
C431        C  0.62287512  0.30728422  0.63284801     0.10400
C432        C  0.60944899  0.28106428  0.64985444    -0.06700
C433        C  0.57917791  0.27536405  0.64043658    -0.17900
C434        C  0.56306452  0.29346248  0.61188316     0.10400
S435        S  0.66043251  0.31892839  0.64607084    -0.32900
S436        S  0.52417597  0.28417957  0.60300309    -0.32900
H437        H  0.51464164  0.31396562  0.59863120     0.28500
H438        H  0.65807270  0.31120540  0.69016650     0.28400
H439        H  0.61792874  0.34407164  0.58862339     0.19000
H440        H  0.56815917  0.25589778  0.65396749     0.19000
C441        C  0.50203880  0.51138100  0.47559717    -0.06800
C442        C  0.53038024  0.50362317  0.49178540    -0.17900
C443        C  0.54065161  0.47413050  0.49071315     0.10400
C444        C  0.52204770  0.45136548  0.47367802    -0.06700
C445        C  0.49369856  0.45915550  0.45744231    -0.17900
C446        C  0.48332776  0.48859212  0.45887387     0.10400
S447        S  0.57812119  0.46744803  0.51006618    -0.32900
S448        S  0.44541236  0.49508081  0.44115448    -0.32900
H449        H  0.43879584  0.51520840  0.47473633     0.28500
H450        H  0.58535326  0.44743248  0.47661395     0.28400
H451        H  0.54519516  0.52087709  0.50410287     0.19000
H452        H  0.47882592  0.44192495  0.44521457     0.19000
C453        C  0.41097681  0.31609893  0.59633784    -0.06800
C454        C  0.42031944  0.29824335  0.56158215    -0.17900
C455        C  0.44216209  0.30828215  0.53239604     0.10400
C456        C  0.45441365  0.33723914  0.53765378    -0.06700
C457        C  0.44199465  0.35631401  0.56896388    -0.17900
C458        C  0.42039698  0.34612652  0.59814078     0.10400
S459        S  0.45610396  0.28256883  0.49213510    -0.32900
S460        S  0.40693819  0.37204260  0.63820976    -0.32900
H461        H  0.37896394  0.35801048  0.64353553     0.28500
H462        H  0.43721516  0.25836779  0.50220728     0.28400
H463        H  0.41278315  0.27530453  0.55989371     0.19000
H464        H  0.45034966  0.37889115  0.57240959     0.19000
C465        C  0.23733814  0.22884445  0.72398789    -0.06800
C466        C  0.24531082  0.25693578  0.70729206    -0.17900
C467        C  0.27521083  0.26594080  0.70454757     0.10400
C468        C  0.29814396  0.24617073  0.71771398    -0.06700
C469        C  0.29023325  0.21790399  0.73390856    -0.17900
C470        C  0.26025225  0.20890874  0.73667620     0.10400
S471        S  0.28228915  0.30359202  0.68641235    -0.32900
S472        S  0.25293913  0.17133008  0.75484686    -0.32900
H473        H  0.23002889  0.16604056  0.72439414     0.28500
H474        H  0.30425776  0.30944219  0.71808047     0.28400
H475        H  0.22799679  0.27266501  0.69795711     0.19000
H476        H  0.30759303  0.20230277  0.74334334     0.19000
C477        C  0.63180771  0.15989652  0.59111562    -0.06800
C478        C  0.62092351  0.17651327  0.55583045    -0.17900
C479        C  0.60034882  0.16407514  0.52671804     0.10400
C480        C  0.58965490  0.13473392  0.53405793    -0.06700
C481        C  0.60367700  0.11705825  0.56569062    -0.17900
C482        C  0.62519004  0.12913073  0.59350650     0.10400
S483        S  0.58597856  0.18798326  0.48456029    -0.32900
S484        S  0.64233998  0.10457255  0.63262361    -0.32900
H485        H  0.66934858  0.12075075  0.63508049     0.28500
H486        H  0.58964872  0.16639701  0.45194083     0.28400
H487        H  0.62651697  0.20002076  0.55285379     0.19000
H488        H  0.59664407  0.09405932  0.57036432     0.19000
C489        C  0.46573971  0.15692887  0.59317246    -0.06800
C490        C  0.43601973  0.15080149  0.60479678    -0.17900
C491        C  0.42043266  0.16941706  0.63352350     0.10400
C492        C  0.43520285  0.19450057  0.65163344    -0.06700
C493        C  0.46570893  0.19897202  0.64273403    -0.17900
C494        C  0.48114238  0.18055143  0.61387379     0.10400
S495        S  0.38124735  0.16206959  0.64361709    -0.32900
S496        S  0.52042796  0.18767041  0.60378154    -0.32900
H497        H  0.52453928  0.20964761  0.63577869     0.28500
H498        H  0.37798826  0.13795382  0.61484993     0.28400
H499        H  0.42449344  0.13233615  0.58935890     0.19000
H500        H  0.47724315  0.21785882  0.65709608     0.19000
C501        C  0.53311105  0.95773088  0.47885227    -0.06800
C502        C  0.53949019  0.97607799  0.44299235    -0.17900
C503        C  0.53097746  0.00614904  0.44205430     0.10400
C504        C  0.51657986  0.01895265  0.47828749    -0.06700
C505        C  0.50974644  0.00048834  0.51391550    -0.17900
C506        C  0.51797625  0.97023231  0.51468575     0.10400
S507        S  0.53815728  0.02635759  0.39258397    -0.32900
S508        S  0.50977914  0.94939156  0.56323778    -0.32900
H509        H  0.53784717  0.93524007  0.56485206     0.28500
H510        H  0.51029628  0.04095520  0.39240197     0.28400
H511        H  0.55015463  0.96694235  0.41539024     0.19000
H512        H  0.49907048  0.00980611  0.54180211     0.19000
C513        C  0.40891463  0.66766227  0.29997678    -0.06800
C514        C  0.43334311  0.65025312  0.28713641    -0.17900
C515        C  0.44503607  0.62841209  0.31478176     0.10400
C516        C  0.43272837  0.62488041  0.35670430    -0.06700
C517        C  0.40535076  0.63862779  0.36608340    -0.17900
C518        C  0.39299951  0.65955279  0.33776169     0.10400
S519        S  0.47658586  0.60723471  0.29570897    -0.32900
S520        S  0.35804409  0.67651463  0.35322124    -0.32900
H521        H  0.34840468  0.68189226  0.31044103     0.28500
H522        H  0.46918677  0.58136159  0.31939193     0.28400
H523        H  0.44484534  0.65517607  0.25704797     0.19000
H524        H  0.39465899  0.63495330  0.39714791     0.19000
C525        C  0.44534508  0.79473695  0.34732806    -0.06800
C526        C  0.46369613  0.77712182  0.37400917    -0.17900
C527        C  0.48202410  0.79000675  0.40583734     0.10400
C528        C  0.48249045  0.82138001  0.41050004    -0.06700
C529        C  0.46257716  0.83876755  0.38583063    -0.17900
C530        C  0.44426989  0.82586899  0.35410300     0.10400
S531        S  0.50423593  0.76613658  0.44056592    -0.32900
S532        S  0.42215577  0.85063767  0.32095015    -0.32900
H533        H  0.42941386  0.83663494  0.28158878     0.28500
H534        H  0.49544942  0.73874489  0.42220799     0.28400
H535        H  0.46383324  0.75309977  0.36951616     0.19000
H536        H  0.46279782  0.86288612  0.38901140     0.19000
C537        C  0.24956449  0.72304305  0.22556929    -0.06800
C538        C  0.26758364  0.71961986  0.18872256    -0.17900
C539        C  0.29758731  0.72866894  0.18877567     0.10400
C540        C  0.31022507  0.74100417  0.22685937    -0.06700
C541        C  0.29206380  0.74452596  0.26355921    -0.17900
C542        C  0.26218198  0.73533180  0.26354507     0.10400
S543        S  0.31803422  0.72469817  0.13885491    -0.32900
S544        S  0.24202752  0.73814069  0.31389324    -0.32900
H545        H  0.22703502  0.71064815  0.30916606     0.28500
H546        H  0.33293192  0.75230730  0.14264184     0.28400
H547        H  0.25798796  0.71064161  0.15918512     0.19000
H548        H  0.30154982  0.75322486  0.29330980     0.19000
C549        C  0.07295498  0.61870131  0.07902354    -0.06800
C550        C  0.07160614  0.61399417  0.12399810    -0.17900
C551        C  0.09223971  0.62732017  0.15187341     0.10400
C552        C  0.11515858  0.64533409  0.13451989    -0.06700
C553        C  0.11850923  0.64757060  0.08953602    -0.17900
C554        C  0.09764098  0.63444074  0.06150666     0.10400
S555        S  0.08694650  0.62221608  0.20940320    -0.32900
S556        S  0.10304815  0.63985122  0.00418493    -0.32900
H557        H  0.09233153  0.61136412  0.99265733     0.28500
H558        H  0.11710948  0.62649522  0.22105099     0.28400
H559        H  0.05308759  0.60156399  0.13802562     0.19000
H560        H  0.13631865  0.66132015  0.07619378     0.19000
C561        C  0.94268264  0.29557690  0.84221785    -0.06800
C562        C  0.93924527  0.32627711  0.84946101    -0.17900
C563        C  0.95754449  0.34141897  0.87931545     0.10400
C564        C  0.98072752  0.32576744  0.90111785    -0.06700
C565        C  0.98215913  0.29462157  0.89647276    -0.17900
C566        C  0.96305929  0.27938328  0.86826837     0.10400
S567        S  0.95031370  0.38054525  0.88747338    -0.32900
S568        S  0.96580192  0.23916615  0.86721710    -0.32900
H569        H  0.93505031  0.23429612  0.86008064     0.28500
H570        H  0.95398183  0.37899381  0.93274222     0.28400
H571        H  0.92285419  0.33874753  0.83079133     0.19000
H572        H  0.99887382  0.28192304  0.91412062     0.19000
C573        C  0.10719926  0.34245566  0.85303172    -0.06800
C574        C  0.09010455  0.33432174  0.81668280    -0.17900
C575        C  0.10004236  0.31216524  0.78816405     0.10400
C576        C  0.12800844  0.29841847  0.79601214    -0.06700
C577        C  0.14664992  0.30966754  0.82891868    -0.17900
C578        C  0.13670343  0.33183887  0.85704638     0.10400
S579        S  0.07511418  0.29935376  0.74576481    -0.32900
S580        S  0.16205749  0.34471941  0.89857990    -0.32900
H581        H  0.14848295  0.37283839  0.90337869     0.28500
H582        H  0.05134792  0.31899796  0.75428953     0.28400
H583        H  0.06760103  0.34292782  0.81330358     0.19000
H584        H  0.16862040  0.30004654  0.83420080     0.19000
C585        C  0.01694924  0.51385718  0.98780472    -0.06800
C586        C  0.01259768  0.49372269  0.02210657    -0.17900
C587        C  0.02350101  0.46464604  0.02016311     0.10400
C588        C  0.03821017  0.45485399  0.98240378    -0.06700
C589        C  0.04324331  0.47514055  0.94847253    -0.17900
C590        C  0.03255890  0.50437942  0.95052954     0.10400
S591        S  0.01961784  0.44181613  0.06791030    -0.32900
S592        S  0.03822697  0.52775989  0.90363269    -0.32900
H593        H  0.00937145  0.54025711  0.90476020     0.28500
H594        H  0.04841988  0.42967606  0.06398717     0.28400
H595        H  0.00159035  0.50101368  0.05155107     0.19000
H596        H  0.05435063  0.46779116  0.91916980     0.19000
C597        C  0.13412850  0.77995761  0.14225215    -0.06800
C598        C  0.13498986  0.77694546  0.09698363    -0.17900
C599        C  0.12079848  0.79749919  0.06995902     0.10400
C600        C  0.10509757  0.82158149  0.08840030    -0.06700
C601        C  0.10656249  0.82631786  0.13321713    -0.17900
C602        C  0.12115448  0.80587023  0.16035451     0.10400
S603        S  0.12255411  0.79115661  0.01223326    -0.32900
S604        S  0.12191259  0.81386138  0.21753084    -0.32900
H605        H  0.15081710  0.80228229  0.22418655     0.28500
H606        H  0.12059367  0.82144171  0.00036915     0.28400
H607        H  0.14550907  0.75767121  0.08246282     0.19000
H608        H  0.09497777  0.84511741  0.14736953     0.19000
C609        C  0.94885641  0.13204678  0.85576228    -0.06800
C610        C  0.91781729  0.13649196  0.85578534    -0.17900
C611        C  0.90426506  0.15519158  0.82505372     0.10400
C612        C  0.92222144  0.16975963  0.79390360    -0.06700
C613        C  0.95260157  0.16242201  0.79070372    -0.17900
C614        C  0.96622801  0.14421263  0.82175033     0.10400
S615        S  0.86432012  0.16126579  0.82691418    -0.32900
S616        S  0.00643190  0.14158719  0.82015474    -0.32900
H617        H  0.00979354  0.15332707  0.86208318     0.28500
H618        H  0.85825061  0.14145809  0.86123176     0.28400
H619        H  0.90453363  0.12669683  0.88135879     0.19000
H620        H  0.96651789  0.17362626  0.76705930     0.19000
C621        C  0.10344677  0.17582572  0.84926923    -0.06800
C622        C  0.10918590  0.14626429  0.86158408    -0.17900
C623        C  0.09186679  0.13212230  0.89337006     0.10400
C624        C  0.06770042  0.14762603  0.91258490    -0.06700
C625        C  0.06378758  0.17798660  0.90273757    -0.17900
C626        C  0.08147073  0.19225596  0.87174875     0.10400
S627        S  0.10167705  0.09434062  0.90738263    -0.32900
S628        S  0.07470145  0.23145321  0.86231911    -0.32900
H629        H  0.10500117  0.23882378  0.85594954     0.28500
H630        H  0.09511351  0.09778375  0.95166918     0.28400
H631        H  0.12664445  0.13380841  0.84544131     0.19000
H632        H  0.04587684  0.19047905  0.91773601     0.19000
C633        C  0.01097629  0.01711979  0.98985024    -0.06800
C634        C  0.98762827  0.99631536  0.99381493    -0.17900
C635        C  0.99356741  0.96586968  0.99913765     0.10400
C636        C  0.02354522  0.95582269  0.99961315    -0.06700
C637        C  0.04683846  0.97663095  0.99569697    -0.17900
C638        C  0.04091348  0.00697698  0.99008500     0.10400
S639        S  0.96200913  0.94130638  0.00713183    -0.32900
S640        S  0.07242996  0.03115721  0.98004172    -0.32900
H641        H  0.05837509  0.04637415  0.94569519     0.28500
H642        H  0.97606435  0.92361799  0.03892435     0.28400
H643        H  0.96463221  0.00389107  0.99367173     0.19000
H644        H  0.06987250  0.96904584  0.99536413     0.19000
C645        C  0.60050931  0.84430852  0.35538521    -0.06800
C646        C  0.58166314  0.83170861  0.32378322    -0.17900
C647        C  0.59206329  0.80961262  0.29558062     0.10400
C648        C  0.62217481  0.80030429  0.29875580    -0.06700
C649        C  0.64180502  0.81561667  0.32658585    -0.17900
C650        C  0.63136674  0.83783122  0.35444862     0.10400
S651        S  0.56557340  0.79078680  0.26047989    -0.32900
S652        S  0.65814036  0.85619136  0.38918818    -0.32900
H653        H  0.64155654  0.88270145  0.39330469     0.28500
H654        H  0.54068792  0.80887005  0.26957693     0.28400
H655        H  0.55800352  0.83682622  0.32421960     0.19000
H656        H  0.66516175  0.80915909  0.32822460     0.19000
C657        C  0.59517119  0.67850933  0.35414679    -0.06800
C658        C  0.60261033  0.65027651  0.37063854    -0.17900
C659        C  0.58405331  0.63567169  0.40050920     0.10400
C660        C  0.55677253  0.64908685  0.41321673    -0.06700
C661        C  0.55075320  0.67837752  0.39941663    -0.17900
C662        C  0.56977830  0.69335321  0.37079777     0.10400
S663        S  0.59644520  0.60000439  0.42069728    -0.32900
S664        S  0.56025039  0.73134950  0.35693961    -0.32900
H665        H  0.59004243  0.74164310  0.35630558     0.28500
H666        H  0.58631071  0.60510393  0.46318257     0.28400
H667        H  0.62262408  0.63909547  0.35929922     0.19000
H668        H  0.53045286  0.68948807  0.40978770     0.19000
C669        C  0.93805406  0.63211671  0.10729161    -0.06800
C670        C  0.91124978  0.64539044  0.09410996    -0.17900
C671        C  0.89673806  0.66607705  0.12079112     0.10400
C672        C  0.90958375  0.67345499  0.16148989    -0.06700
C673        C  0.93446239  0.65732056  0.17637755    -0.17900
C674        C  0.94886936  0.63683904  0.14963001     0.10400
S675        S  0.86267499  0.68346341  0.10160144    -0.32900
S676        S  0.98231751  0.61913312  0.17000696    -0.32900
H677        H  0.98128041  0.59439054  0.14204080     0.28500
H678        H  0.86167538  0.66958868  0.06076728     0.28400
H679        H  0.90304611  0.64131251  0.06154725     0.19000
H680        H  0.94413360  0.66221141  0.20782234     0.19000
C681        C  0.97172968  0.83724193  0.08556351    -0.06800
C682        C  0.97391513  0.84180408  0.13056195    -0.17900
C683        C  0.95454609  0.82761031  0.15936303     0.10400
C684        C  0.93240616  0.80817412  0.14323841    -0.06700
C685        C  0.92841598  0.80527817  0.09839305    -0.17900
C686        C  0.94781674  0.81966932  0.06918633     0.10400
S687        S  0.95962530  0.83463729  0.21652612    -0.32900
S688        S  0.94186115  0.81488651  0.01165635    -0.32900
H689        H  0.91722033  0.79537404  0.01453205     0.28500
H690        H  0.92949535  0.83021650  0.22806286     0.28400
H691        H  0.99153980  0.85571858  0.14378123     0.19000
H692        H  0.91103408  0.79052974  0.08642446     0.19000
C693        C  0.73552059  0.72780297  0.24389225    -0.06800
C694        C  0.75498014  0.70666251  0.26217137    -0.17900
C695        C  0.78606112  0.71048343  0.26078333     0.10400
C696        C  0.79829482  0.73646132  0.24132148    -0.06700
C697        C  0.77872755  0.75763390  0.22333384    -0.17900
C698        C  0.74773832  0.75391667  0.22500101     0.10400
S699        S  0.80849105  0.68089272  0.28332740    -0.32900
S700        S  0.72530494  0.78433795  0.20482845    -0.32900
H701        H  0.70641964  0.78488338  0.24126349     0.28500
H702        H  0.82567750  0.67749746  0.24550082     0.28400
H703        H  0.74594168  0.68661412  0.27694375     0.19000
H704        H  0.78757228  0.77781305  0.20864099     0.19000
C705        C  0.46244464  0.14951159  0.38641501    -0.06800
C706        C  0.43409360  0.13908572  0.37362476    -0.17900
C707        C  0.41879503  0.15161198  0.33814087     0.10400
C708        C  0.43231842  0.17496944  0.31412914    -0.06700
C709        C  0.46019032  0.18605456  0.32777173    -0.17900
C710        C  0.47510346  0.17403959  0.36374985     0.10400
S711        S  0.38158016  0.13830013  0.32521895    -0.32900
S712        S  0.50956973  0.19196722  0.37974837    -0.32900
H713        H  0.50201594  0.19297863  0.42397677     0.28500
H714        H  0.37949102  0.11674982  0.35829397     0.28400
H715        H  0.42391270  0.12081270  0.39145623     0.19000
H716        H  0.47058159  0.20435144  0.31015921     0.19000
C717        C  0.08815317  0.32936257  0.06940166    -0.06800
C718        C  0.08667279  0.29814929  0.07284962    -0.17900
C719        C  0.10147204  0.28288248  0.10624987     0.10400
C720        C  0.11745660  0.29915110  0.13816257    -0.06700
C721        C  0.11828771  0.33048017  0.13508654    -0.17900
C722        C  0.10372377  0.34565651  0.10147500     0.10400
S723        S  0.10043970  0.24269477  0.10448232    -0.32900
S724        S  0.10454124  0.38584820  0.10257185    -0.32900
H725        H  0.07476249  0.38864152  0.08851025     0.28500
H726        H  0.13128322  0.23949294  0.11259003     0.28400
H727        H  0.07511426  0.28541595  0.04815051     0.19000
H728        H  0.12982170  0.34340815  0.15962623     0.19000
C729        C  0.24550828  0.24225295  0.22418569    -0.06800
C730        C  0.26429190  0.24470959  0.26053321    -0.17900
C731        C  0.29377882  0.23443774  0.25965686     0.10400
C732        C  0.30543300  0.22230358  0.22101125    -0.06700
C733        C  0.28650715  0.21935569  0.18481957    -0.17900
C734        C  0.25684578  0.22934870  0.18586181     0.10400
S735        S  0.31478785  0.23614156  0.30956845    -0.32900
S736        S  0.23526128  0.22647158  0.13659353    -0.32900
H737        H  0.22063798  0.25401834  0.14178706     0.28500
H738        H  0.32929378  0.20862411  0.30332237     0.28400
H739        H  0.25557804  0.25370341  0.29057398     0.19000
H740        H  0.29524633  0.21039829  0.15477609     0.19000
C741        C  0.41923971  0.67391711  0.63991419    -0.06800
C742        C  0.44830653  0.68184594  0.62695093    -0.17900
C743        C  0.46290533  0.66681409  0.59330973     0.10400
C744        C  0.44815424  0.64327925  0.57113260    -0.06700
C745        C  0.41862910  0.63611845  0.58319447    -0.17900
C746        C  0.40402136  0.65126383  0.61675911     0.10400
S747        S  0.50006300  0.67935931  0.57993928    -0.32900
S748        S  0.36555945  0.64142407  0.62713834    -0.32900
H749        H  0.35639494  0.67087738  0.63565988     0.28500
H750        H  0.51308568  0.65168106  0.59042271     0.28400
H751        H  0.46024063  0.69923505  0.64414378     0.19000
H752        H  0.40660369  0.61879013  0.56604194     0.19000
C753        C  0.08293124  0.83798812  0.90076380    -0.06800
C754        C  0.07772455  0.80796297  0.89027580    -0.17900
C755        C  0.09277086  0.79406913  0.85610922     0.10400
C756        C  0.11402801  0.81037167  0.83144656    -0.06700
C757        C  0.11935201  0.84044089  0.84235709    -0.17900
C758        C  0.10396648  0.85441065  0.87620937     0.10400
S759        S  0.08408138  0.75535748  0.84670264    -0.32900
S760        S  0.11149097  0.89348288  0.88527592    -0.32900
H761        H  0.08163568  0.90093595  0.89468768     0.28500
H762        H  0.07223662  0.76103264  0.80519171     0.28400
H763        H  0.06206048  0.79494778  0.90937622     0.19000
H764        H  0.13521628  0.85352681  0.82374628     0.19000
C765        C  0.24434245  0.75935643  0.74375077    -0.06800
C766        C  0.26377872  0.76651755  0.70955798    -0.17900
C767        C  0.29278412  0.75486108  0.70783176     0.10400
C768        C  0.30326612  0.73656299  0.74194287    -0.06700
C769        C  0.28403153  0.72994019  0.77659907    -0.17900
C770        C  0.25489165  0.74123375  0.77802653     0.10400
S771        S  0.31429671  0.76211656  0.65961084    -0.32900
S772        S  0.23264560  0.73232930  0.82500177    -0.32900
H773        H  0.21773801  0.75995574  0.82615541     0.28500
H774        H  0.32675427  0.73331832  0.65756777     0.28400
H775        H  0.25571660  0.77978470  0.68254543     0.19000
H776        H  0.29197963  0.71639900  0.80337474     0.19000
C777        C  0.95760846  0.82268437  0.40016023    -0.06800
C778        C  0.92704356  0.82838905  0.39265473    -0.17900
C779        C  0.91061155  0.81273388  0.36107255     0.10400
C780        C  0.92494954  0.79060816  0.33603349    -0.06700
C781        C  0.95526789  0.78447789  0.34404319    -0.17900
C782        C  0.97176839  0.80040903  0.37500216     0.10400
S783        S  0.87122548  0.82071251  0.35432051    -0.32900
S784        S  0.01079017  0.79113427  0.38018446    -0.32900
H785        H  0.02030451  0.82056196  0.37173201     0.28500
H786        H  0.86801166  0.83867937  0.39134507     0.28400
H787        H  0.91585456  0.84527127  0.41172707     0.19000
H788        H  0.96664969  0.76777592  0.32481468     0.19000
C789        C  0.07849944  0.85660101  0.56835911    -0.06800
C790        C  0.07739227  0.86679251  0.61139688    -0.17900
C791        C  0.09689798  0.85570372  0.64281218     0.10400
C792        C  0.11834343  0.83427929  0.63104700    -0.06700
C793        C  0.12213763  0.82700708  0.58721132    -0.17900
C794        C  0.10256295  0.83822559  0.55558651     0.10400
S795        S  0.09199288  0.86816175  0.69792135    -0.32900
S796        S  0.10888260  0.82764450  0.50009009    -0.32900
H797        H  0.09797405  0.85454213  0.48252390     0.28500
H798        H  0.12154392  0.86251862  0.71141568     0.28400
H799        H  0.05977944  0.88173791  0.62159709     0.19000
H800        H  0.13907372  0.81100498  0.57796889     0.19000
C801        C  0.08810966  0.13699355  0.57330812    -0.06800
C802        C  0.06920563  0.15348997  0.60055136    -0.17900
C803        C  0.08049192  0.16914522  0.63616191     0.10400
C804        C  0.11152728  0.16892258  0.64455402    -0.06700
C805        C  0.13042013  0.15195325  0.61825022    -0.17900
C806        C  0.11922264  0.13612051  0.58255936     0.10400
S807        S  0.05401371  0.18805547  0.67047096    -0.32900
S808        S  0.14541483  0.11607144  0.54887056    -0.32900
H809        H  0.17183374  0.12772399  0.56716387     0.28500
H810        H  0.06900542  0.18161360  0.70952911     0.28400
H811        H  0.04539708  0.15418158  0.59419697     0.19000
H812        H  0.15412380  0.15169054  0.62524098     0.19000
C813        C  0.13971019  0.18434127  0.31590108    -0.06800
C814        C  0.14717406  0.18573230  0.36013824    -0.17900
C815        C  0.13500703  0.16564693  0.38987383     0.10400
C816        C  0.11463149  0.14371278  0.37543757    -0.06700
C817        C  0.10969359  0.14013854  0.33085892    -0.17900
C818        C  0.12232934  0.16000116  0.30086946     0.10400
S819        S  0.14546939  0.16979680  0.44604240    -0.32900
S820        S  0.11481092  0.15344861  0.24432296    -0.32900
H821        H  0.14342787  0.16254904  0.23054307     0.28500
H822        H  0.14198832  0.13937833  0.45631791     0.28400
H823        H  0.16127252  0.20359104  0.37223256     0.19000
H824        H  0.09455525  0.12291875  0.31950012     0.19000
C825        C  0.01458592  0.95507741  0.47748105    -0.06800
C826        C  0.99597370  0.97677711  0.49592224    -0.17900
C827        C  0.00424858  0.00686299  0.49693314     0.10400
C828        C  0.03142189  0.01605736  0.47745746    -0.06700
C829        C  0.05007196  0.99434490  0.45907289    -0.17900
C830        C  0.04228225  0.96402722  0.45930453     0.10400
S831        S  0.97948086  0.03184276  0.52508776    -0.32900
S832        S  0.06874992  0.93737012  0.43784734    -0.32900
H833        H  0.09260487  0.95737389  0.43101424     0.28500
H834        H  0.00263570  0.04511948  0.54942485     0.28400
H835        H  0.97511541  0.97015439  0.51097810     0.19000
H836        H  0.07090337  0.00117384  0.44423556     0.19000
C837        C  0.61806691  0.80022371  0.64554012    -0.06800
C838        C  0.63595404  0.81591027  0.61595655    -0.17900
C839        C  0.62357975  0.82970147  0.57934977     0.10400
C840        C  0.59219708  0.82896618  0.57256002    -0.06700
C841        C  0.57429284  0.81325114  0.60229995    -0.17900
C842        C  0.58673891  0.79924738  0.63877339     0.10400
S843        S  0.64943099  0.84626256  0.54152899    -0.32900
S844        S  0.56121740  0.78211376  0.67663794    -0.32900
H845        H  0.57582303  0.79323000  0.71374551     0.28500
H846        H  0.63604209  0.83290826  0.50502063     0.28400
H847        H  0.66001175  0.81668640  0.62068542     0.19000
H848        H  0.55020090  0.81251008  0.59776866     0.19000
C849        C  0.93119725  0.67575922  0.83866382    -0.06800
C850        C  0.92649116  0.64484719  0.84301350    -0.17900
C851        C  0.94086069  0.62819637  0.87526421     0.10400
C852        C  0.95987561  0.64269564  0.90532778    -0.06700
C853        C  0.96480793  0.67352906  0.90093264    -0.17900
C854        C  0.95059477  0.69019934  0.86845754     0.10400
S855        S  0.93518670  0.58833295  0.87448157    -0.32900
S856        S  0.95769594  0.72981292  0.86799515    -0.32900
H857        H  0.92727455  0.73738452  0.86376485     0.28500
H858        H  0.96554501  0.58161254  0.88181554     0.28400
H859        H  0.91231995  0.63318944  0.82004865     0.19000
H860        H  0.97916558  0.68502418  0.92388020     0.19000
C861        C  0.92624688  0.79216241  0.66754161    -0.06800
C862        C  0.95698838  0.79794859  0.67115996    -0.17900
C863        C  0.97152770  0.81624116  0.64114252     0.10400
C864        C  0.95494457  0.82915590  0.60689885    -0.06700
C865        C  0.92378151  0.82586545  0.60591268    -0.17900
C866        C  0.90922990  0.80753234  0.63597490     0.10400
S867        S  0.01139602  0.82127629  0.64726089    -0.32900
S868        S  0.86914917  0.80378902  0.63146832    -0.32900
H869        H  0.86436700  0.79778075  0.67569371     0.28500
H870        H  0.01211384  0.84999709  0.62882947     0.28400
H871        H  0.97015680  0.78652991  0.69560501     0.19000
H872        H  0.91091727  0.83621796  0.58015871     0.19000
C873        C  0.80730205  0.72971337  0.74308933    -0.06800
C874        C  0.79878756  0.75895039  0.75387167    -0.17900
C875        C  0.76877903  0.76771164  0.75338066     0.10400
C876        C  0.74628158  0.74660367  0.74321137    -0.06700
C877        C  0.75469076  0.71739832  0.73238659    -0.17900
C878        C  0.78473820  0.70864874  0.73259431     0.10400
S879        S  0.76097157  0.80657195  0.76332934    -0.32900
S880        S  0.79243049  0.67007493  0.72057769    -0.32900
H881        H  0.81326837  0.66672786  0.75452074     0.28500
H882        H  0.73833915  0.80864686  0.73165991     0.28400
H883        H  0.81576887  0.77560719  0.76106150     0.19000
H884        H  0.73760778  0.70090103  0.72503367     0.19000
C885        C  0.47117653  0.82867044  0.08148641    -0.06800
C886        C  0.48464683  0.80290503  0.09859839    -0.17900
C887        C  0.47129008  0.78657597  0.13203505     0.10400
C888        C  0.44322912  0.79566429  0.14850682    -0.06700
C889        C  0.43019617  0.82194052  0.13223240    -0.17900
C890        C  0.44383987  0.83860322  0.09920150     0.10400
S891        S  0.49183666  0.75504535  0.15280594    -0.32900
S892        S  0.42659586  0.87306272  0.08169192    -0.32900
H893        H  0.39860858  0.86814628  0.10125830     0.28500
H894        H  0.48857522  0.76363747  0.19639242     0.28400
H895        H  0.50577470  0.79519186  0.08559525     0.19000
H896        H  0.40915794  0.82953907  0.14551874     0.19000
C897        C  0.59046913  0.84355190  0.91481463    -0.06800
C898        C  0.59757973  0.85892626  0.87648957    -0.17900
C899        C  0.61848508  0.84772375  0.84737366     0.10400
C900        C  0.63181967  0.81972943  0.85563085    -0.06700
C901        C  0.62788340  0.80645834  0.89653106    -0.17900
C902        C  0.60760404  0.81825332  0.92657655     0.10400
S903        S  0.62594737  0.86964630  0.79952535    -0.32900
S904        S  0.60256891  0.79932512  0.97785449    -0.32900
H905        H  0.62681005  0.77954069  0.97395489     0.28500
H906        H  0.65623498  0.86125637  0.79705849     0.28400
H907        H  0.58581207  0.87926503  0.86805996     0.19000
H908        H  0.63885589  0.78547211  0.90365741     0.19000
C909        C  0.46581175  0.81664501  0.87632752    -0.06800
C910        C  0.43535629  0.82110950  0.86752110    -0.17900
C911        C  0.41987240  0.80239930  0.83879941     0.10400
C912        C  0.43498471  0.77830394  0.81899419    -0.06700
C913        C  0.46587208  0.77514560  0.82563388    -0.17900
C914        C  0.48146685  0.79420460  0.85357410     0.10400
S915        S  0.38098756  0.81054636  0.82858548    -0.32900
S916        S  0.52136518  0.78884720  0.85851334    -0.32900
H917        H  0.52821539  0.81940015  0.86259723     0.28500
H918        H  0.38154855  0.80167914  0.78486869     0.28400
H919        H  0.42335503  0.83873485  0.88398215     0.19000
H920        H  0.47783562  0.75713611  0.80998774     0.19000
C921        C  0.59340415  0.14150990  0.87927902    -0.06800
C922        C  0.62303362  0.13442036  0.86816012    -0.17900
C923        C  0.63776949  0.14887736  0.83401815     0.10400
C924        C  0.62259518  0.17082928  0.80947005    -0.06700
C925        C  0.59302231  0.17798098  0.82044970    -0.17900
C926        C  0.57814539  0.16335036  0.85432337     0.10400
S927        S  0.67641846  0.13933790  0.82503330    -0.32900
S928        S  0.53942464  0.17291930  0.86251109    -0.32900
H929        H  0.52994090  0.14304797  0.86658884     0.28500
H930        H  0.68564834  0.16882452  0.81640667     0.28400
H931        H  0.63530153  0.11811348  0.88714185     0.19000
H932        H  0.58092173  0.19440798  0.80137111     0.19000
C933        C  0.44126211  0.16150742  0.10847497    -0.06800
C934        C  0.44766639  0.13116636  0.11420314    -0.17900
C935        C  0.46798635  0.11665390  0.08699408     0.10400
C936        C  0.48219432  0.13289873  0.05341883    -0.06700
C937        C  0.47371678  0.16249938  0.04558012    -0.17900
C938        C  0.45361947  0.17698172  0.07281804     0.10400
S939        S  0.47530864  0.07772221  0.09737301    -0.32900
S940        S  0.44549608  0.21556610  0.06131562    -0.32900
H941        H  0.41579187  0.21393612  0.07598403     0.28500
H942        H  0.48061487  0.07033766  0.05376573     0.28400
H943        H  0.43793975  0.11910273  0.14124114     0.19000
H944        H  0.48421646  0.17509819  0.01964990     0.19000
C945        C  0.54262578  0.01582384  0.97847509    -0.06800
C946        C  0.55393329  0.99717644  0.01124417    -0.17900
C947        C  0.54489289  0.96737383  0.01505244     0.10400
C948        C  0.52457208  0.95514978  0.98452436    -0.06700
C949        C  0.51312366  0.97385410  0.95185471    -0.17900
C950        C  0.52207934  0.00374532  0.94819567     0.10400
S951        S  0.55943302  0.94677172  0.06067265    -0.32900
S952        S  0.50745707  0.02465985  0.90295723    -0.32900
H953        H  0.53509236  0.03811124  0.89288750     0.28500
H954        H  0.53159466  0.93398718  0.07137785     0.28400
H955        H  0.56918348  0.00617231  0.03532787     0.19000
H956        H  0.49785852  0.96485138  0.92775691     0.19000
C957        C  0.95657178  0.14669192  0.07272557    -0.06800
C958        C  0.92534483  0.14430717  0.07816993    -0.17900
C959        C  0.91024525  0.16111854  0.10946771     0.10400
C960        C  0.92657406  0.18087939  0.13607432    -0.06700
C961        C  0.95757726  0.18347179  0.13059112    -0.17900
C962        C  0.97280734  0.16620832  0.10024021     0.10400
S963        S  0.87012966  0.15725435  0.11276509    -0.32900
S964        S  0.01302259  0.16922693  0.10030749    -0.32900
H965        H  0.01744579  0.13811831  0.09985923     0.28500
H966        H  0.86472471  0.18702137  0.12489020     0.28400
H967        H  0.91240233  0.12973151  0.05726049     0.19000
H968        H  0.97038400  0.19799747  0.15185348     0.19000
C969        C  0.94418549  0.16569324  0.32949847    -0.06800
C970        C  0.94050717  0.16878400  0.37434501    -0.17900
C971        C  0.95987886  0.15453675  0.40346685     0.10400
C972        C  0.98350201  0.13678760  0.38729552    -0.06700
C973        C  0.98586418  0.13244194  0.34236833    -0.17900
C974        C  0.96661741  0.14664436  0.31343132     0.10400
S975        S  0.95349280  0.16045710  0.46040677    -0.32900
S976        S  0.97238431  0.14004696  0.25635171    -0.32900
H977        H  0.94213551  0.14297168  0.24434899     0.28500
H978        H  0.95899489  0.13055991  0.47200460     0.28400
H979        H  0.92321807  0.18338429  0.38674297     0.19000
H980        H  0.00363416  0.11868945  0.32930116     0.19000
C981        C  0.61476396  0.30022131  0.31319913    -0.06800
C982        C  0.62796692  0.32365250  0.33664665    -0.17900
C983        C  0.61291486  0.33764142  0.37078077     0.10400
C984        C  0.58390965  0.32780224  0.38266917    -0.06700
C985        C  0.57079429  0.30424926  0.35930647    -0.17900
C986        C  0.58563417  0.29060535  0.32472453     0.10400
S987        S  0.63161979  0.36862972  0.39644758    -0.32900
S988        S  0.56547405  0.26203876  0.29559230    -0.32900
H989        H  0.57254058  0.27361418  0.25442374     0.28500
H990        H  0.60604494  0.38690340  0.39683291     0.28400
H991        H  0.65017247  0.33147420  0.32792389     0.19000
H992        H  0.54856918  0.29639165  0.36791346     0.19000
C993        C  0.61803645  0.14573356  0.08086720    -0.06800
C994        C  0.61081384  0.14391424  0.12497806    -0.17900
C995        C  0.62319234  0.16395502  0.15496888     0.10400
C996        C  0.64276943  0.18676208  0.14034041    -0.06700
C997        C  0.65245465  0.18613998  0.09702229    -0.17900
C998        C  0.64042714  0.16588798  0.06733392     0.10400
S999        S  0.61201687  0.15994177  0.21071103    -0.32900
S1000       S  0.65362128  0.16768290  0.01217903    -0.32900
H1001       H  0.64781409  0.13752924  0.00246924     0.28500
H1002       H  0.64070749  0.16626918  0.22733032     0.28400
H1003       H  0.59406383  0.12800376  0.13574204     0.19000
H1004       H  0.66826031  0.20270173  0.08532629     0.19000
C1005       C  0.80845521  0.23951417  0.23562393    -0.06800
C1006       C  0.79761299  0.24910425  0.19531307    -0.17900
C1007       C  0.76741395  0.25576586  0.18919441     0.10400
C1008       C  0.74745290  0.25371972  0.22455680    -0.06700
C1009       C  0.75829957  0.24414631  0.26497173    -0.17900
C1010       C  0.78857329  0.23742338  0.27106490     0.10400
S1011       S  0.75563483  0.26470059  0.13480308    -0.32900
S1012       S  0.80054542  0.22789217  0.32518002    -0.32900
H1013       H  0.82707276  0.24487092  0.32340227     0.28500
H1014       H  0.73012785  0.24621730  0.13602859     0.28400
H1015       H  0.81264915  0.25047811  0.16782366     0.19000
H1016       H  0.74317464  0.24252216  0.29233050     0.19000
C1017       C  0.12688773  0.67109977  0.32737251    -0.06800
C1018       C  0.10249966  0.68597957  0.34618228    -0.17900
C1019       C  0.08714519  0.67403007  0.38176224     0.10400
C1020       C  0.09546200  0.64582686  0.39862387    -0.06700
C1021       C  0.12024528  0.63123907  0.38051893    -0.17900
C1022       C  0.13618334  0.64354472  0.34553116     0.10400
S1023       S  0.05827537  0.69677750  0.40533643    -0.32900
S1024       S  0.16889967  0.62412649  0.32600118    -0.32900
H1025       H  0.16480067  0.59763828  0.34984586     0.28500
H1026       H  0.06853653  0.69266249  0.44810347     0.28400
H1027       H  0.09530637  0.70725945  0.33322926     0.19000
H1028       H  0.12728012  0.61011784  0.39408496     0.19000
C1029       C  0.98156720  0.63444228  0.58042492    -0.06800
C1030       C  0.98513175  0.62994636  0.62523859    -0.17900
C1031       C  0.96560086  0.64256830  0.65509304     0.10400
C1032       C  0.94197218  0.66076086  0.64037353    -0.06700
C1033       C  0.93679221  0.66355585  0.59564487    -0.17900
C1034       C  0.95615358  0.65031835  0.56548663     0.10400
S1035       S  0.97240629  0.63496547  0.71174806    -0.32900
S1036       S  0.94731377  0.65475133  0.50887861    -0.32900
H1037       H  0.95614603  0.62566697  0.49753016     0.28500
H1038       H  0.94209365  0.63560276  0.72397645     0.28400
H1039       H  0.00395699  0.61732587  0.63751846     0.19000
H1040       H  0.91834265  0.67706892  0.58413831     0.19000
C1041       C  0.11140700  0.65897831  0.59033624    -0.06800
C1042       C  0.10956733  0.65438770  0.63520298    -0.17900
C1043       C  0.12033717  0.67599927  0.66444837     0.10400
C1044       C  0.13348603  0.70255363  0.64816011    -0.06700
C1045       C  0.13742395  0.70563567  0.60318289    -0.17900
C1046       C  0.12658678  0.68426756  0.57429834     0.10400
S1047       S  0.11630414  0.66959003  0.72196626    -0.32900
S1048       S  0.13169929  0.69113779  0.51709829    -0.32900
H1049       H  0.13160949  0.66093051  0.50466988     0.28500
H1050       H  0.10417204  0.64063924  0.71914182     0.28400
H1051       H  0.09787033  0.63488855  0.64717519     0.19000
H1052       H  0.14796052  0.72549428  0.59005929     0.19000
C1053       C  0.96735299  0.32843539  0.57182284    -0.06800
C1054       C  0.93588259  0.32658457  0.57203430    -0.17900
C1055       C  0.92057502  0.30931269  0.60281183     0.10400
C1056       C  0.93686941  0.29373123  0.63487407    -0.06700
C1057       C  0.96820963  0.29526043  0.63453653    -0.17900
C1058       C  0.98355616  0.31266400  0.60410157     0.10400
S1059       S  0.88043795  0.30673656  0.59793241    -0.32900
S1060       S  0.02368083  0.31434335  0.60961720    -0.32900
H1061       H  0.02488709  0.34565901  0.60597309     0.28500
H1062       H  0.87859275  0.27676332  0.61145308     0.28400
H1063       H  0.92301915  0.33795215  0.54721757     0.19000
H1064       H  0.98090127  0.28369706  0.65936932     0.19000
C1065       C  0.96197630  0.33310793  0.36268414    -0.06800
C1066       C  0.93073363  0.33468849  0.35917090    -0.17900
C1067       C  0.91538581  0.31710275  0.32889665     0.10400
C1068       C  0.93169753  0.29771316  0.30181534    -0.06700
C1069       C  0.96300185  0.29866648  0.30227095    -0.17900
C1070       C  0.97831300  0.31604294  0.33246795     0.10400
S1071       S  0.87511254  0.31946702  0.32728064    -0.32900
S1072       S  0.01866409  0.31427927  0.33214808    -0.32900
H1073       H  0.02295289  0.34405751  0.34516706     0.28500
H1074       H  0.87224767  0.31095375  0.28359187     0.28400
H1075       H  0.91815816  0.34826082  0.38169250     0.19000
H1076       H  0.97566481  0.28406630  0.28122067     0.19000
C1077       C  0.08445098  0.33909836  0.40830590    -0.06800
C1078       C  0.08631520  0.30786334  0.40858789    -0.17900
C1079       C  0.10312421  0.29276565  0.37750885     0.10400
C1080       C  0.11868029  0.30926465  0.34569119    -0.06700
C1081       C  0.11935569  0.34051393  0.34803256    -0.17900
C1082       C  0.10241877  0.35562025  0.37919182     0.10400
S1083       S  0.10386876  0.25237943  0.37816661    -0.32900
S1084       S  0.10416807  0.39583373  0.37977684    -0.32900
H1085       H  0.09798104  0.39869716  0.42426313     0.28500
H1086       H  0.09004530  0.24855630  0.41870371     0.28400
H1087       H  0.07272316  0.29514971  0.43102451     0.19000
H1088       H  0.13199552  0.35318449  0.32440908     0.19000
C1089       C  0.02398592  0.45958707  0.48452535    -0.06800
C1090       C  0.05229976  0.46774101  0.50056892    -0.17900
C1091       C  0.06107812  0.49769290  0.50371489     0.10400
C1092       C  0.04093846  0.52051107  0.49127257    -0.06700
C1093       C  0.01256897  0.51235169  0.47541068    -0.17900
C1094       C  0.00376650  0.48233302  0.47209345     0.10400
S1095       S  0.09863164  0.50498595  0.52239250    -0.32900
S1096       S  0.96625674  0.47379554  0.45359158    -0.32900
H1097       H  0.95546132  0.50326238  0.45259463     0.28500
H1098       H  0.10451648  0.52687470  0.49073623     0.28400
H1099       H  0.06820311  0.45053161  0.50971566     0.19000
H1100       H  0.99689536  0.52972287  0.46629051     0.19000
C1101       C  0.57952245  0.64667596  0.07552888    -0.06800
C1102       C  0.59631097  0.62908492  0.10427582    -0.17900
C1103       C  0.61015023  0.64157588  0.14085756     0.10400
C1104       C  0.60819290  0.67276421  0.14829414    -0.06700
C1105       C  0.59152478  0.69023283  0.11901405    -0.17900
C1106       C  0.57743351  0.67768255  0.08288998     0.10400
S1107       S  0.62912714  0.61623796  0.17692841    -0.32900
S1108       S  0.55843047  0.70278451  0.04630755    -0.32900
H1109       H  0.56818379  0.68849824  0.00832698     0.28500
H1110       H  0.61266381  0.62537707  0.21337226     0.28400
H1111       H  0.59792928  0.60524280  0.09888552     0.19000
H1112       H  0.58969692  0.71411888  0.12382758     0.19000
C1113       C  0.45799451  0.62386719  0.90965694    -0.06800
C1114       C  0.45456335  0.61084914  0.86849542    -0.17900
C1115       C  0.43479028  0.62265590  0.83805760     0.10400
C1116       C  0.41790598  0.64806158  0.84877941    -0.06700
C1117       C  0.41781229  0.65824816  0.89173601    -0.17900
C1118       C  0.43774877  0.64641672  0.92252961     0.10400
S1119       S  0.43358171  0.60556580  0.78517965    -0.32900
S1120       S  0.43838214  0.66195692  0.97653218    -0.32900
H1121       H  0.41392430  0.68135794  0.97131187     0.28500
H1122       H  0.40416338  0.61457310  0.77547390     0.28400
H1123       H  0.46888993  0.59260185  0.85863475     0.19000
H1124       H  0.40422835  0.67739444  0.90003104     0.19000
C1125       C  0.58473284  0.65419475  0.87131862    -0.06800
C1126       C  0.56695290  0.67197339  0.84401917    -0.17900
C1127       C  0.57972892  0.69005454  0.81206631     0.10400
C1128       C  0.61120670  0.69128781  0.80804768    -0.06700
C1129       C  0.62880820  0.67173065  0.83297639    -0.17900
C1130       C  0.61597842  0.65346064  0.86479529     0.10400
S1131       S  0.55462152  0.71094995  0.77767244    -0.32900
S1132       S  0.64096952  0.63211298  0.89860546    -0.32900
H1133       H  0.62669867  0.63970702  0.93763572     0.28500
H1134       H  0.57315984  0.70985872  0.74091404     0.28400
H1135       H  0.54284995  0.67190647  0.84775454     0.19000
H1136       H  0.65295895  0.67239255  0.83019958     0.19000
C1137       C  0.45675590  0.33841828  0.87458249    -0.06800
C1138       C  0.42526234  0.33842068  0.87317412    -0.17900
C1139       C  0.40943185  0.32246808  0.84150150     0.10400
C1140       C  0.42526929  0.30649102  0.80958567    -0.06700
C1141       C  0.45666125  0.30696662  0.81035701    -0.17900
C1142       C  0.47251795  0.32296053  0.84185404     0.10400
S1143       S  0.36919624  0.32170443  0.84547680    -0.32900
S1144       S  0.51272923  0.32311827  0.83755154    -0.32900
H1145       H  0.51562714  0.35366865  0.84739187     0.28500
H1146       H  0.36627754  0.29157236  0.83329039     0.28400
H1147       H  0.41269761  0.34974828  0.89829723     0.19000
H1148       H  0.46908303  0.29534590  0.78533091     0.19000
C1149       C  0.43718227  0.32398687  0.07041478    -0.06800
C1150       C  0.43817287  0.33054692  0.11477466    -0.17900
C1151       C  0.42448564  0.31160960  0.14495121     0.10400
C1152       C  0.40940987  0.28574372  0.13028916    -0.06700
C1153       C  0.40530062  0.28158106  0.08551767    -0.17900
C1154       C  0.41966974  0.29996370  0.05543127     0.10400
S1155       S  0.42759439  0.32134221  0.20137048    -0.32900
S1156       S  0.41623797  0.29207572  0.99813010    -0.32900
H1157       H  0.40194286  0.26420087  0.00238652     0.28500
H1158       H  0.39951052  0.30943580  0.21276944     0.28400
H1159       H  0.45109984  0.34944119  0.12613302     0.19000
H1160       H  0.39263170  0.26261516  0.07397087     0.19000
C1161       C  0.61218951  0.30992302  0.10720340    -0.06800
C1162       C  0.61110917  0.34109828  0.10298400    -0.17900
C1163       C  0.59113617  0.35453311  0.07374626     0.10400
C1164       C  0.57170009  0.33642080  0.04884547    -0.06700
C1165       C  0.57476495  0.30537119  0.05035059    -0.17900
C1166       C  0.59496183  0.29197924  0.07883425     0.10400
S1167       S  0.59112675  0.39472570  0.06980965    -0.32900
S1168       S  0.59741526  0.25177863  0.07792316    -0.32900
H1169       H  0.62842482  0.25112342  0.08576688     0.28500
H1170       H  0.58119696  0.39594351  0.02652865     0.28400
H1171       H  0.62486215  0.35502951  0.12380197     0.19000
H1172       H  0.56030578  0.29134032  0.03069377     0.19000
C1173       C  0.52779592  0.51848951  0.98323620    -0.06800
C1174       C  0.53026736  0.50174293  0.94498649    -0.17900
C1175       C  0.52228922  0.47162037  0.94371537     0.10400
C1176       C  0.51188246  0.45750381  0.98167152    -0.06700
C1177       C  0.50932347  0.47412510  0.02001112    -0.17900
C1178       C  0.51759577  0.50427263  0.02141139     0.10400
S1179       S  0.52460200  0.45289012  0.89215581    -0.32900
S1180       S  0.51608611  0.52273962  0.07319848    -0.32900
H1181       H  0.54307033  0.53851026  0.06732909     0.28500
H1182       H  0.49820395  0.43610760  0.89767555     0.28400
H1183       H  0.53752758  0.51243619  0.91527184     0.19000
H1184       H  0.50186941  0.46325193  0.04955143     0.19000
loop_ 
_geom_bond_atom_site_label_1 
_geom_bond_atom_site_label_2 
_geom_bond_distance 
_geom_bond_site_symmetry_2 
_ccdc_geom_bond_type 
In1           O3   2.247       .  S
In1           O4   2.242       .  S
In1          O12   2.228       .  S
In1           O6   2.232   1_556  S
In1           O8   2.214   1_556  S
In1           O9   2.249       .  S
In1          O10   2.246   1_556  S
In1          O13   2.232   1_556  S
C2            O8   1.258       .  A
C2           O10   1.260       .  A
C2         C1149   1.463       .  S
O3           C11   1.262       .  A
O4           C11   1.261       .  A
C5           O12   1.262       .  A
C5            O6   1.260   1_556  A
C5         C1176   1.471       .  S
C7            O9   1.261   1_554  A
C7           O13   1.258       .  A
C7         C1164   1.470       .  S
C11        C1137   1.486       .  S
In14         O16   2.207       .  S
In14         O17   2.251       .  S
In14         O25   2.238   1_556  S
In14         O19   2.223       .  S
In14         O21   2.258       .  S
In14         O22   2.241   1_556  S
In14         O23   2.225       .  S
In14         O26   2.245   1_556  S
C15          O21   1.263       .  A
C15          O23   1.258       .  A
C15        C1125   1.475       .  S
O16          C24   1.260       .  A
O17          C24   1.265       .  A
C18          O25   1.263   1_556  A
C18          O19   1.262       .  A
C18        C1173   1.477       .  S
C20          O22   1.262       .  A
C20          O26   1.261       .  A
C20        C1101   1.476       .  S
C24        C1113   1.482       .  S
In27         O29   2.234       .  S
In27         O30   2.236       .  S
In27         O38   2.250       .  S
In27         O32   2.238   1_455  S
In27         O34   2.261   1_455  S
In27         O35   2.258   1_455  S
In27         O36   2.217   1_455  S
In27         O39   2.242       .  S
C28          O34   1.262       .  A
C28          O36   1.256       .  A
C28        C1065   1.467       .  S
O29          C37   1.261       .  A
O30          C37   1.263       .  A
C31          O38   1.262       .  A
C31          O32   1.259   1_455  A
C31        C1089   1.485       .  S
C33          O35   1.261       .  A
C33          O39   1.258   1_655  A
C33        C1053   1.489       .  S
C37        C1077   1.472       .  S
In40         O42   2.240       .  S
In40         O43   2.251       .  S
In40         O51   2.240       .  S
In40         O45   2.244       .  S
In40         O47   2.266       .  S
In40         O48   2.268       .  S
In40         O49   2.211       .  S
In40         O52   2.215       .  S
C41          O47   1.264       .  A
C41          O49   1.258       .  A
C41        C1041   1.469       .  S
O42          C50   1.263       .  A
O43          C50   1.264       .  A
C44          O51   1.264       .  A
C44          O45   1.262       .  A
C44        C1092   1.486       .  S
C46          O48   1.264       .  A
C46          O52   1.259       .  A
C46        C1029   1.485   1_455  S
C50        C1020   1.488       .  S
In53         O55   2.227       .  S
In53         O56   2.246       .  S
In53         O64   2.233       .  S
In53         O58   2.236       .  S
In53         O60   2.274       .  S
In53         O61   2.242       .  S
In53         O62   2.209       .  S
In53         O65   2.249       .  S
C54          O60   1.264       .  A
C54          O62   1.257       .  A
C54        C1161   1.473       .  S
O55          C63   1.261       .  A
O56          C63   1.264       .  A
C57          O64   1.261       .  A
C57          O58   1.262       .  A
C57        C1008   1.475       .  S
C59          O61   1.261       .  A
C59          O65   1.262       .  A
C59         C981   1.484       .  S
C63         C996   1.485       .  S
In66         O68   2.241       .  S
In66         O69   2.223       .  S
In66         O77   2.221       .  S
In66         O71   2.233       .  S
In66         O73   2.257       .  S
In66         O74   2.236       .  S
In66         O75   2.217       .  S
In66         O78   2.227       .  S
C67          O73   1.261       .  A
C67          O75   1.256       .  A
C67         C969   1.466       .  S
O68          C76   1.263       .  A
O69          C76   1.261       .  A
C70          O77   1.262       .  A
C70          O71   1.262       .  A
C70        C1005   1.472       .  S
C72          O74   1.260       .  A
C72          O78   1.258       .  A
C72        C1068   1.465       .  S
C76         C960   1.471       .  S
In79         O81   2.252       .  S
In79         O82   2.235       .  S
In79         O90   2.240       .  S
In79         O84   2.241   1_556  S
In79         O86   2.269   1_556  S
In79         O87   2.250       .  S
In79         O88   2.233   1_556  S
In79         O91   2.234   1_556  S
C80          O86   1.260       .  A
C80          O88   1.256       .  A
C80         C993   1.472       .  S
O81          C89   1.266       .  A
O82          C89   1.261       .  A
C83          O90   1.260       .  A
C83          O84   1.263   1_556  A
C83         C945   1.484       .  S
C85          O87   1.261   1_554  A
C85          O91   1.256       .  A
C85         C936   1.473       .  S
C89         C921   1.489       .  S
In92         O94   2.216       .  S
In92         O95   2.241       .  S
In92        O103   2.229   1_556  S
In92         O97   2.250       .  S
In92         O99   2.263       .  S
In92        O100   2.240   1_556  S
In92        O101   2.221       .  S
In92        O104   2.238   1_556  S
C93          O99   1.264       .  A
C93         O101   1.258       .  A
C93         C909   1.475       .  S
O94         C102   1.262       .  A
O95         C102   1.263       .  A
C96         O103   1.259   1_556  A
C96          O97   1.264       .  A
C96         C948   1.486       .  S
C98         O100   1.261       .  A
C98         O104   1.260       .  A
C98         C885   1.481       .  S
C102        C897   1.480       .  S
In105       O107   2.221       .  S
In105       O108   2.248       .  S
In105       O116   2.239       .  S
In105       O110   2.236       .  S
In105       O112   2.267       .  S
In105       O113   2.242       .  S
In105       O114   2.217       .  S
In105       O117   2.241       .  S
C106        O112   1.262       .  A
C106        O114   1.257       .  A
C106       C1032   1.472       .  S
O107        C115   1.258       .  A
O108        C115   1.262       .  A
C109        O116   1.262       .  A
C109        O110   1.261       .  A
C109        C873   1.483       .  S
C111        O113   1.261       .  A
C111        O117   1.263       .  A
C111        C849   1.487       .  S
C115        C861   1.469       .  S
In118       O120   2.247       .  S
In118       O121   2.249       .  S
In118       O129   2.248       .  S
In118       O123   2.236       .  S
In118       O125   2.250       .  S
In118       O126   2.232       .  S
In118       O127   2.225       .  S
In118       O130   2.252       .  S
C119        O125   1.260       .  A
C119        O127   1.258       .  A
C119        C900   1.479       .  S
O120        C128   1.260       .  A
O121        C128   1.260       .  A
C122        O129   1.263       .  A
C122        O123   1.260       .  A
C122        C876   1.479       .  S
C124        O126   1.258       .  A
C124        O130   1.261       .  A
C124       C1128   1.478       .  S
C128        C837   1.481       .  S
In131       O133   2.211       .  S
In131       O134   2.244       .  S
In131       O142   2.225       .  S
In131       O136   2.237       .  S
In131       O138   2.259       .  S
In131       O139   2.234       .  S
In131       O140   2.216       .  S
In131       O143   2.223       .  S
C132        O138   1.263       .  A
C132        O140   1.258       .  A
C132        C816   1.470       .  S
O133        C141   1.260       .  A
O134        C141   1.263       .  A
C135        O142   1.259       .  A
C135        O136   1.264       .  A
C135        C828   1.482       .  S
C137        O139   1.264       .  A
C137        O143   1.261       .  A
C137        C801   1.482       .  S
C141        C972   1.477   1_455  S
In144       O146   2.243       .  S
In144       O147   2.251   1_655  S
In144       O155   2.225   1_655  S
In144       O149   2.230       .  S
In144       O151   2.249       .  S
In144       O152   2.255   1_655  S
In144       O153   2.219       .  S
In144       O156   2.213   1_655  S
C145        O151   1.263       .  A
C145        O153   1.259       .  A
C145        C864   1.467       .  S
O146        C154   1.261       .  A
O147        C154   1.263   1_455  A
C148        O155   1.261       .  A
C148        O149   1.263   1_455  A
C148        C825   1.480       .  S
C150        O152   1.267       .  A
C150        O156   1.259       .  A
C150        C789   1.479       .  S
C154        C777   1.493       .  S
In157       O159   2.227       .  S
In157       O160   2.261       .  S
In157       O168   2.233       .  S
In157       O162   2.247       .  S
In157       O164   2.255       .  S
In157       O165   2.245       .  S
In157       O166   2.220       .  S
In157       O169   2.251       .  S
C158        O164   1.261       .  A
C158        O166   1.259       .  A
C158        C792   1.465       .  S
O159        C167   1.258       .  A
O160        C167   1.263       .  A
C161        O168   1.260       .  A
C161        O162   1.262       .  A
C161        C765   1.477       .  S
C163        O165   1.261       .  A
C163        O169   1.263       .  A
C163        C756   1.492       .  S
C167       C1044   1.485       .  S
In170       O172   2.245       .  S
In170       O173   2.250       .  S
In170       O181   2.242       .  S
In170       O175   2.238       .  S
In170       O177   2.226       .  S
In170       O178   2.260       .  S
In170       O179   2.259       .  S
In170       O182   2.237       .  S
C171        O177   1.257       .  A
C171        O179   1.258       .  A
C171       C1116   1.469       .  S
O172        C180   1.263       .  A
O173        C180   1.264       .  A
C174        O181   1.262       .  A
C174        O175   1.261       .  A
C174        C768   1.478       .  S
C176        O178   1.260       .  A
C176        O182   1.256       .  A
C176        C912   1.477       .  S
C180        C741   1.487       .  S
In183       O185   2.241       .  S
In183       O186   2.249       .  S
In183       O194   2.237       .  S
In183       O188   2.234       .  S
In183       O190   2.261       .  S
In183       O191   2.247       .  S
In183       O192   2.211       .  S
In183       O195   2.218       .  S
C184        O190   1.264       .  A
C184        O192   1.258       .  A
C184       C1080   1.470       .  S
O185        C193   1.262       .  A
O186        C193   1.262       .  A
C187        O194   1.262       .  A
C187        O188   1.263       .  A
C187        C729   1.477       .  S
C189        O191   1.266       .  A
C189        O195   1.261       .  A
C189        C813   1.481       .  S
C193        C720   1.486       .  S
In196       O198   2.212       .  S
In196       O199   2.249       .  S
In196       O207   2.225       .  S
In196       O201   2.243       .  S
In196       O203   2.259       .  S
In196       O204   2.256       .  S
In196       O205   2.221       .  S
In196       O208   2.238       .  S
C197        O203   1.264       .  A
C197        O205   1.258       .  A
C197        C933   1.469       .  S
O198        C206   1.261       .  A
O199        C206   1.267       .  A
C200        O207   1.262       .  A
C200        O201   1.264       .  A
C200        C732   1.479       .  S
C202        O204   1.264       .  A
C202        O208   1.260       .  A
C202        C708   1.487       .  S
C206       C1152   1.477       .  S
In209       O211   2.244       .  S
In209       O212   2.249       .  S
In209       O220   2.236       .  S
In209       O214   2.222       .  S
In209       O216   2.253       .  S
In209       O217   2.252       .  S
In209       O218   2.219       .  S
In209       O221   2.221       .  S
C210        O216   1.262       .  A
C210        O218   1.259       .  A
C210        C684   1.466       .  S
O211        C219   1.262       .  A
O212        C219   1.264       .  A
C213        O220   1.261       .  A
C213        O214   1.263       .  A
C213        C696   1.482       .  S
C215        O217   1.265       .  A
C215        O221   1.257       .  A
C215        C672   1.479       .  S
C219        C780   1.487       .  S
In222       O224   2.227       .  S
In222       O225   2.243       .  S
In222       O233   2.232       .  S
In222       O227   2.242       .  S
In222       O229   2.261       .  S
In222       O230   2.233       .  S
In222       O231   2.221       .  S
In222       O234   2.255       .  S
C223        O229   1.264       .  A
C223        O231   1.258       .  A
C223        C657   1.479       .  S
O224        C232   1.260       .  A
O225        C232   1.262       .  A
C226        O233   1.260       .  A
C226        O227   1.262       .  A
C226        C693   1.480       .  S
C228        O230   1.261       .  A
C228        O234   1.261       .  A
C228       C1104   1.489       .  S
C232        C648   1.473       .  S
In235       O237   2.248   1_556  S
In235       O238   2.235   1_556  S
In235       O246   2.234   1_655  S
In235       O240   2.240       .  S
In235       O242   2.247       .  S
In235       O243   2.244   1_655  S
In235       O244   2.242       .  S
In235       O247   2.235   1_655  S
C236        O242   1.256       .  A
C236        O244   1.258       .  A
C236        C609   1.471       .  S
O237        C245   1.263       .  A
O238        C245   1.261       .  A
C239        O246   1.260       .  A
C239        O240   1.261   1_455  A
C239        C633   1.473       .  S
C241        O243   1.263       .  A
C241        O247   1.258       .  A
C241        C624   1.482       .  S
C245        C957   1.486       .  S
In248       O250   2.221       .  S
In248       O251   2.251       .  S
In248       O259   2.231   1_554  S
In248       O253   2.232       .  S
In248       O255   2.254       .  S
In248       O256   2.243   1_554  S
In248       O257   2.202       .  S
In248       O260   2.236   1_554  S
C249        O255   1.265       .  A
C249        O257   1.259       .  A
C249        C600   1.466       .  S
O250        C258   1.261   1_455  A
O251        C258   1.264   1_455  A
C252        O259   1.262   1_554  A
C252        O253   1.263       .  A
C252        C636   1.472   1_554  S
C254        O256   1.265       .  A
C254        O260   1.261       .  A
C254        C753   1.481       .  S
C258        C681   1.485       .  S
In261       O263   2.244   1_556  S
In261       O264   2.246   1_556  S
In261       O272   2.225       .  S
In261       O266   2.233       .  S
In261       O268   2.245       .  S
In261       O269   2.242       .  S
In261       O270   2.238       .  S
In261       O273   2.251       .  S
C262        O268   1.257       .  A
C262        O270   1.258       .  A
C262        C573   1.471       .  S
O263        C271   1.262       .  A
O264        C271   1.262       .  A
C265        O272   1.261       .  A
C265        O266   1.261       .  A
C265        C588   1.471       .  S
C267        O269   1.261       .  A
C267        O273   1.259       .  A
C267        C564   1.488   1_455  S
C271        C717   1.479       .  S
In274       O276   2.218   1_655  S
In274       O277   2.235   1_655  S
In274       O285   2.223   1_654  S
In274       O279   2.222       .  S
In274       O281   2.213       .  S
In274       O282   2.249   1_554  S
In274       O283   2.261       .  S
In274       O286   2.235   1_554  S
C275        O281   1.256       .  A
C275        O283   1.261       .  A
C275        C669   1.461       .  S
O276        C284   1.262       .  A
O277        C284   1.265       .  A
C278        O285   1.261       .  A
C278        O279   1.263   1_456  A
C278        C585   1.471       .  S
C280        O282   1.261       .  A
C280        O286   1.259       .  A
C280        C852   1.482       .  S
C284        C549   1.476       .  S
In287       O289   2.240       .  S
In287       O290   2.249       .  S
In287       O298   2.228       .  S
In287       O292   2.239       .  S
In287       O294   2.252       .  S
In287       O295   2.248       .  S
In287       O296   2.213       .  S
In287       O299   2.228       .  S
C288        O294   1.262       .  A
C288        O296   1.259       .  A
C288        C552   1.462       .  S
O289        C297   1.261       .  A
O290        C297   1.264       .  A
C291        O298   1.261       .  A
C291        O292   1.262       .  A
C291        C537   1.475       .  S
C293        O295   1.262       .  A
C293        O299   1.259       .  A
C293        C597   1.478       .  S
C297       C1017   1.491       .  S
In300       O302   2.197       .  S
In300       O303   2.251       .  S
In300       O311   2.231       .  S
In300       O305   2.231       .  S
In300       O307   2.248       .  S
In300       O308   2.240       .  S
In300       O309   2.224       .  S
In300       O312   2.231       .  S
C301        O307   1.264       .  A
C301        O309   1.260       .  A
C301        C525   1.474       .  S
O302        C310   1.259       .  A
O303        C310   1.266       .  A
C304        O311   1.261       .  A
C304        O305   1.263       .  A
C304        C540   1.478       .  S
C306        O308   1.262       .  A
C306        O312   1.261       .  A
C306        C888   1.483       .  S
C310        C513   1.473       .  S
In313       O315   2.228       .  S
In313       O316   2.239       .  S
In313       O324   2.240       .  S
In313       O318   2.267       .  S
In313       O320   2.228       .  S
In313       O321   2.245       .  S
In313       O322   2.268       .  S
In313       O325   2.265       .  S
C314        O320   1.257       .  A
C314        O322   1.263       .  A
C314        C489   1.480       .  S
O315        C323   1.262       .  A
O316        C323   1.260       .  A
C317        O324   1.259       .  A
C317        O318   1.261       .  A
C317        C504   1.488       .  S
C319        O321   1.257       .  A
C319        O325   1.262       .  A
C319        C705   1.490       .  S
C323        C480   1.476       .  S
In326       O328   2.247       .  S
In326       O329   2.259       .  S
In326       O337   2.255       .  S
In326       O331   2.241       .  S
In326       O333   2.238       .  S
In326       O334   2.233       .  S
In326       O335   2.250       .  S
In326       O338   2.249       .  S
C327        O333   1.258       .  A
C327        O335   1.261       .  A
C327        C645   1.476       .  S
O328        C336   1.260       .  A
O329        C336   1.261       .  A
C330        O337   1.261       .  A
C330        O331   1.260       .  A
C330        C501   1.486       .  S
C332        O334   1.259       .  A
C332        O338   1.262       .  A
C332        C528   1.479       .  S
C336        C840   1.488       .  S
In339       O341   2.214       .  S
In339       O342   2.241       .  S
In339       O350   2.233       .  S
In339       O344   2.238       .  S
In339       O346   2.255       .  S
In339       O347   2.239       .  S
In339       O348   2.218       .  S
In339       O351   2.234       .  S
C340        O346   1.264       .  A
C340        O348   1.258       .  A
C340        C621   1.473       .  S
O341        C349   1.261       .  A
O342        C349   1.264       .  A
C343        O350   1.262       .  A
C343        O344   1.263       .  A
C343        C465   1.480       .  S
C345        O347   1.261       .  A
C345        O351   1.260       .  A
C345        C804   1.470       .  S
C349        C576   1.476       .  S
In352       O354   2.253       .  S
In352       O355   2.240       .  S
In352       O363   2.250       .  S
In352       O357   2.232       .  S
In352       O359   2.237       .  S
In352       O360   2.230       .  S
In352       O361   2.238       .  S
In352       O364   2.261       .  S
C353        O359   1.260       .  A
C353        O361   1.260       .  A
C353        C453   1.475       .  S
O354        C362   1.261       .  A
O355        C362   1.260       .  A
C356        O363   1.263       .  A
C356        O357   1.260       .  A
C356        C468   1.480       .  S
C358        O360   1.258       .  A
C358        O364   1.261       .  A
C358        C492   1.484       .  S
C362       C1140   1.478       .  S
In365       O367   2.257       .  S
In365       O368   2.255       .  S
In365       O376   2.256       .  S
In365       O370   2.245       .  S
In365       O372   2.246       .  S
In365       O373   2.246       .  S
In365       O374   2.235       .  S
In365       O377   2.244       .  S
C366        O372   1.261       .  A
C366        O374   1.256       .  A
C366        C516   1.477       .  S
O367        C375   1.260       .  A
O368        C375   1.260       .  A
C369        O376   1.260       .  A
C369        O370   1.256       .  A
C369        C441   1.483       .  S
C371        O373   1.263       .  A
C371        O377   1.261       .  A
C371        C660   1.485       .  S
C375        C744   1.492       .  S
In378       O380   2.223       .  S
In378       O381   2.252       .  S
In378       O389   2.242       .  S
In378       O383   2.243       .  S
In378       O385   2.258       .  S
In378       O386   2.255       .  S
In378       O387   2.221       .  S
In378       O390   2.247       .  S
C379        O385   1.264       .  A
C379        O387   1.259       .  A
C379        C429   1.476       .  S
O380        C388   1.260       .  A
O381        C388   1.264       .  A
C382        O389   1.262       .  A
C382        O383   1.262       .  A
C382        C444   1.484       .  S
C384        O386   1.262       .  A
C384        O390   1.259       .  A
C384        C984   1.487       .  S
C388        C456   1.483       .  S
In391       O393   2.216       .  S
In391       O394   2.251       .  S
In391       O402   2.239       .  S
In391       O396   2.234       .  S
In391       O398   2.280       .  S
In391       O399   2.245       .  S
In391       O400   2.219       .  S
In391       O403   2.257       .  S
C392        O398   1.263       .  A
C392        O400   1.255       .  A
C392        C561   1.478       .  S
O393        C401   1.260       .  A
O394        C401   1.265       .  A
C395        O402   1.263       .  A
C395        O396   1.264       .  A
C395        C417   1.482       .  S
C397        O399   1.260       .  A
C397        O403   1.261       .  A
C397       C1056   1.479       .  S
C401        C612   1.473       .  S
In404       O406   2.243       .  S
In404       O407   2.253       .  S
In404       O415   2.245       .  S
In404       O409   2.241       .  S
In404       O411   2.253       .  S
In404       O412   2.237       .  S
In404       O413   2.234       .  S
In404       O416   2.242       .  S
C405        O411   1.258       .  A
C405        O413   1.258       .  A
C405        C477   1.475       .  S
O406        C414   1.261       .  A
O407        C414   1.262       .  A
C408        O415   1.260       .  A
C408        O409   1.260       .  A
C408        C420   1.483       .  S
C410        O412   1.262       .  A
C410        O416   1.261       .  A
C410        C432   1.484       .  S
C414        C924   1.482       .  S
C417        C418   1.403       .  A
C417        C422   1.415       .  A
C418        C419   1.399       .  A
C418        H427   1.083       .  S
C419        C420   1.415       .  A
C419        S423   1.801       .  S
C420        C421   1.405       .  A
C421        C422   1.399       .  A
C421        H428   1.084       .  S
C422        S424   1.803       .  S
S423        H426   1.408       .  S
S424        H425   1.407       .  S
C429        C430   1.402       .  A
C429        C434   1.413       .  A
C430        C431   1.401       .  A
C430        H439   1.084       .  S
C431        C432   1.418       .  A
C431        S435   1.802       .  S
C432        C433   1.405       .  A
C433        C434   1.396       .  A
C433        H440   1.084       .  S
C434        S436   1.806       .  S
S435        H438   1.408       .  S
S436        H437   1.408       .  S
C441        C442   1.404       .  A
C441        C446   1.415       .  A
C442        C443   1.400       .  A
C442        H451   1.085       .  S
C443        C444   1.415       .  A
C443        S447   1.802       .  S
C444        C445   1.406       .  A
C445        C446   1.399       .  A
C445        H452   1.085       .  S
C446        S448   1.803       .  S
S447        H450   1.408       .  S
S448        H449   1.408       .  S
C453        C454   1.404       .  A
C453        C458   1.409       .  A
C454        C455   1.402       .  A
C454        H463   1.082       .  S
C455        C456   1.416       .  A
C455        S459   1.809       .  S
C456        C457   1.407       .  A
C457        C458   1.397       .  A
C457        H464   1.082       .  S
C458        S460   1.803       .  S
S459        H462   1.407       .  S
S460        H461   1.407       .  S
C465        C466   1.404       .  A
C465        C470   1.414       .  A
C466        C467   1.397       .  A
C466        H475   1.086       .  S
C467        C468   1.414       .  A
C467        S471   1.803       .  S
C468        C469   1.405       .  A
C469        C470   1.401       .  A
C469        H476   1.084       .  S
C470        S472   1.802       .  S
S471        H474   1.408       .  S
S472        H473   1.408       .  S
C477        C478   1.404       .  A
C477        C482   1.410       .  A
C478        C479   1.399       .  A
C478        H487   1.085       .  S
C479        C480   1.415       .  A
C479        S483   1.801       .  S
C480        C481   1.403       .  A
C481        C482   1.396       .  A
C481        H488   1.085       .  S
C482        S484   1.802       .  S
S483        H486   1.407       .  S
S484        H485   1.408       .  S
C489        C490   1.403       .  A
C489        C494   1.413       .  A
C490        C491   1.406       .  A
C490        H499   1.083       .  S
C491        C492   1.416       .  A
C491        S495   1.808       .  S
C492        C493   1.405       .  A
C493        C494   1.400       .  A
C493        H500   1.084       .  S
C494        S496   1.811       .  S
S495        H498   1.406       .  S
S496        H497   1.407       .  S
C501        C502   1.406       .  A
C501        C506   1.415       .  A
C502        C503   1.401   1_565  A
C502        H511   1.061       .  S
C503        C504   1.415       .  A
C503        S507   1.802       .  S
C504        C505   1.408       .  A
C505        C506   1.405   1_545  A
C505        H512   1.071       .  S
C506        S508   1.802       .  S
S507        H510   1.408       .  S
S508        H509   1.407       .  S
C513        C514   1.402       .  A
C513        C518   1.414       .  A
C514        C515   1.398       .  A
C514        H523   1.085       .  S
C515        C516   1.416       .  A
C515        S519   1.802       .  S
C516        C517   1.402       .  A
C517        C518   1.394       .  A
C517        H524   1.084       .  S
C518        S520   1.805       .  S
S519        H522   1.408       .  S
S520        H521   1.408       .  S
C525        C526   1.404       .  A
C525        C530   1.411       .  A
C526        C527   1.401       .  A
C526        H535   1.085       .  S
C527        C528   1.413       .  A
C527        S531   1.809       .  S
C528        C529   1.405       .  A
C529        C530   1.399       .  A
C529        H536   1.085       .  S
C530        S532   1.803       .  S
S531        H534   1.407       .  S
S532        H533   1.407       .  S
C537        C538   1.404       .  A
C537        C542   1.411       .  A
C538        C539   1.399       .  A
C538        H547   1.084       .  S
C539        C540   1.415       .  A
C539        S543   1.803       .  S
C540        C541   1.405       .  A
C541        C542   1.396       .  A
C541        H548   1.083       .  S
C542        S544   1.803       .  S
S543        H546   1.408       .  S
S544        H545   1.408       .  S
C549        C550   1.405       .  A
C549        C554   1.415       .  A
C550        C551   1.393       .  A
C550        H559   1.087       .  S
C551        C552   1.408       .  A
C551        S555   1.806       .  S
C552        C553   1.400       .  A
C553        C554   1.399       .  A
C553        H560   1.086       .  S
C554        S556   1.802       .  S
S555        H558   1.407       .  S
S556        H557   1.407   1_554  S
C561        C562   1.402       .  A
C561        C566   1.414       .  A
C562        C563   1.404       .  A
C562        H571   1.086       .  S
C563        C564   1.420       .  A
C563        S567   1.801       .  S
C564        C565   1.404       .  A
C565        C566   1.395       .  A
C565        H572   1.085       .  S
C566        S568   1.806       .  S
S567        H570   1.408       .  S
S568        H569   1.407       .  S
C573        C574   1.403       .  A
C573        C578   1.408       .  A
C574        C575   1.402       .  A
C574        H583   1.083       .  S
C575        C576   1.415       .  A
C575        S579   1.809       .  S
C576        C577   1.405       .  A
C577        C578   1.395       .  A
C577        H584   1.085       .  S
C578        S580   1.803       .  S
S579        H582   1.407       .  S
S580        H581   1.408       .  S
C585        C586   1.403   1_556  A
C585        C590   1.414       .  A
C586        C587   1.393       .  A
C586        H595   1.086       .  S
C587        C588   1.411   1_554  A
C587        S591   1.800       .  S
C588        C589   1.403       .  A
C589        C590   1.397       .  A
C589        H596   1.085       .  S
C590        S592   1.803       .  S
S591        H594   1.404       .  S
S592        H593   1.408       .  S
C597        C598   1.404       .  A
C597        C602   1.415       .  A
C598        C599   1.394       .  A
C598        H607   1.083       .  S
C599        C600   1.410       .  A
C599        S603   1.807       .  S
C600        C601   1.401       .  A
C601        C602   1.401       .  A
C601        H608   1.083       .  S
C602        S604   1.801       .  S
S603        H606   1.407       .  S
S604        H605   1.407       .  S
C609        C610   1.402       .  A
C609        C614   1.415       .  A
C610        C611   1.401       .  A
C610        H619   1.080       .  S
C611        C612   1.412       .  A
C611        S615   1.807       .  S
C612        C613   1.401       .  A
C613        C614   1.396       .  A
C613        H620   1.082       .  S
C614        S616   1.801   1_655  S
S615        H618   1.407       .  S
S616        H617   1.405       .  S
C621        C622   1.401       .  A
C621        C626   1.413       .  A
C622        C623   1.400       .  A
C622        H631   1.083       .  S
C623        C624   1.417       .  A
C623        S627   1.801       .  S
C624        C625   1.404       .  A
C625        C626   1.395       .  A
C625        H632   1.083       .  S
C626        S628   1.805       .  S
S627        H630   1.408       .  S
S628        H629   1.407       .  S
C633        C634   1.402   1_445  A
C633        C638   1.414       .  A
C634        C635   1.399       .  A
C634        H643   1.083   1_565  S
C635        C636   1.414   1_655  A
C635        S639   1.803   1_556  S
C636        C637   1.400       .  A
C637        C638   1.396   1_565  A
C637        H644   1.085       .  S
C638        S640   1.801       .  S
S639        H642   1.407       .  S
S640        H641   1.406       .  S
C645        C646   1.405       .  A
C645        C650   1.410       .  A
C646        C647   1.400       .  A
C646        H655   1.082       .  S
C647        C648   1.413       .  A
C647        S651   1.810       .  S
C648        C649   1.404       .  A
C649        C650   1.398       .  A
C649        H656   1.085       .  S
C650        S652   1.802       .  S
S651        H654   1.407       .  S
S652        H653   1.407       .  S
C657        C658   1.402       .  A
C657        C662   1.415       .  A
C658        C659   1.401       .  A
C658        H667   1.085       .  S
C659        C660   1.417       .  A
C659        S663   1.801       .  S
C660        C661   1.405       .  A
C661        C662   1.397       .  A
C661        H668   1.085       .  S
C662        S664   1.805       .  S
S663        H666   1.408       .  S
S664        H665   1.408       .  S
C669        C670   1.398       .  A
C669        C674   1.408       .  A
C670        C671   1.402       .  A
C670        H679   1.084       .  S
C671        C672   1.419       .  A
C671        S675   1.809       .  S
C672        C673   1.403       .  A
C673        C674   1.395       .  A
C673        H680   1.084       .  S
C674        S676   1.805       .  S
S675        H678   1.407       .  S
S676        H677   1.407       .  S
C681        C682   1.407       .  A
C681        C686   1.418       .  A
C682        C683   1.394       .  A
C682        H691   1.082       .  S
C683        C684   1.406       .  A
C683        S687   1.806       .  S
C684        C685   1.401       .  A
C685        C686   1.407       .  A
C685        H692   1.083       .  S
C686        S688   1.808       .  S
S687        H690   1.407       .  S
S688        H689   1.407       .  S
C693        C694   1.404       .  A
C693        C698   1.415       .  A
C694        C695   1.400       .  A
C694        H703   1.084       .  S
C695        C696   1.417       .  A
C695        S699   1.801       .  S
C696        C697   1.404       .  A
C697        C698   1.395       .  A
C697        H704   1.084       .  S
C698        S700   1.803       .  S
S699        H702   1.408       .  S
S700        H701   1.408       .  S
C705        C706   1.405       .  A
C705        C710   1.418       .  A
C706        C707   1.406       .  A
C706        H715   1.085       .  S
C707        C708   1.416       .  A
C707        S711   1.809       .  S
C708        C709   1.403       .  A
C709        C710   1.401       .  A
C709        H716   1.086       .  S
C710        S712   1.803       .  S
S711        H714   1.406       .  S
S712        H713   1.408       .  S
C717        C718   1.403       .  A
C717        C722   1.412       .  A
C718        C719   1.401       .  A
C718        H727   1.082       .  S
C719        C720   1.417       .  A
C719        S723   1.801       .  S
C720        C721   1.406       .  A
C721        C722   1.399       .  A
C721        H728   1.083       .  S
C722        S724   1.801       .  S
S723        H726   1.408       .  S
S724        H725   1.404       .  S
C729        C730   1.403       .  A
C729        C734   1.413       .  A
C730        C731   1.397       .  A
C730        H739   1.085       .  S
C731        C732   1.413       .  A
C731        S735   1.803       .  S
C732        C733   1.405       .  A
C733        C734   1.401       .  A
C733        H740   1.085       .  S
C734        S736   1.803       .  S
S735        H738   1.408       .  S
S736        H737   1.407       .  S
C741        C742   1.405       .  A
C741        C746   1.414       .  A
C742        C743   1.402       .  A
C742        H751   1.082       .  S
C743        C744   1.418       .  A
C743        S747   1.800       .  S
C744        C745   1.408       .  A
C745        C746   1.403       .  A
C745        H752   1.081       .  S
C746        S748   1.802       .  S
S747        H750   1.408       .  S
S748        H749   1.408       .  S
C753        C754   1.402       .  A
C753        C758   1.413       .  A
C754        C755   1.400       .  A
C754        H763   1.084       .  S
C755        C756   1.419       .  A
C755        S759   1.800       .  S
C756        C757   1.408       .  A
C757        C758   1.402       .  A
C757        H764   1.084       .  S
C758        S760   1.803       .  S
S759        H762   1.408       .  S
S760        H761   1.407       .  S
C765        C766   1.405       .  A
C765        C770   1.413       .  A
C766        C767   1.400       .  A
C766        H775   1.084       .  S
C767        C768   1.412       .  A
C767        S771   1.802       .  S
C768        C769   1.405       .  A
C769        C770   1.399       .  A
C769        H776   1.084       .  S
C770        S772   1.803       .  S
S771        H774   1.408       .  S
S772        H773   1.407       .  S
C777        C778   1.409       .  A
C777        C782   1.417       .  A
C778        C779   1.406       .  A
C778        H787   1.083       .  S
C779        C780   1.414       .  A
C779        S783   1.808       .  S
C780        C781   1.404       .  A
C781        C782   1.400       .  A
C781        H788   1.084       .  S
C782        S784   1.800   1_655  S
S783        H786   1.407       .  S
S784        H785   1.408       .  S
C789        C790   1.406       .  A
C789        C794   1.413       .  A
C790        C791   1.394       .  A
C790        H799   1.082       .  S
C791        C792   1.407       .  A
C791        S795   1.805       .  S
C792        C793   1.403       .  A
C793        C794   1.402       .  A
C793        H800   1.083       .  S
C794        S796   1.801       .  S
S795        H798   1.407       .  S
S796        H797   1.408       .  S
C801        C802   1.406       .  A
C801        C806   1.419       .  A
C802        C803   1.397       .  A
C802        H811   1.082       .  S
C803        C804   1.410       .  A
C803        S807   1.804       .  S
C804        C805   1.400       .  A
C805        C806   1.402       .  A
C805        H812   1.080       .  S
C806        S808   1.809       .  S
S807        H810   1.407       .  S
S808        H809   1.407       .  S
C813        C814   1.406       .  A
C813        C818   1.415       .  A
C814        C815   1.394       .  A
C814        H823   1.083       .  S
C815        C816   1.410       .  A
C815        S819   1.804       .  S
C816        C817   1.402       .  A
C817        C818   1.401       .  A
C817        H824   1.083       .  S
C818        S820   1.801       .  S
S819        H822   1.406       .  S
S820        H821   1.408       .  S
C825        C826   1.403   1_455  A
C825        C830   1.417       .  A
C826        C827   1.397   1_665  A
C826        H835   1.083       .  S
C827        C828   1.416       .  A
C827        S831   1.802   1_455  S
C828        C829   1.404   1_545  A
C829        C830   1.401       .  A
C829        H836   1.082   1_565  S
C830        S832   1.811       .  S
S831        H834   1.408   1_655  S
S832        H833   1.407       .  S
C837        C838   1.402       .  A
C837        C842   1.415       .  A
C838        C839   1.400       .  A
C838        H847   1.085       .  S
C839        C840   1.418       .  A
C839        S843   1.802       .  S
C840        C841   1.406       .  A
C841        C842   1.402       .  A
C841        H848   1.086       .  S
C842        S844   1.804       .  S
S843        H846   1.408       .  S
S844        H845   1.408       .  S
C849        C850   1.406       .  A
C849        C854   1.418       .  A
C850        C851   1.398       .  A
C850        H859   1.083       .  S
C851        C852   1.414       .  A
C851        S855   1.803       .  S
C852        C853   1.404       .  A
C853        C854   1.400       .  A
C853        H860   1.084       .  S
C854        S856   1.801       .  S
S855        H858   1.408       .  S
S856        H857   1.408       .  S
C861        C862   1.401       .  A
C861        C866   1.413       .  A
C862        C863   1.396       .  A
C862        H871   1.084       .  S
C863        C864   1.413       .  A
C863        S867   1.804   1_655  S
C864        C865   1.400       .  A
C865        C866   1.398       .  A
C865        H872   1.084       .  S
C866        S868   1.803       .  S
S867        H870   1.406       .  S
S868        H869   1.407       .  S
C873        C874   1.405       .  A
C873        C878   1.416       .  A
C874        C875   1.398       .  A
C874        H883   1.085       .  S
C875        C876   1.413       .  A
C875        S879   1.803       .  S
C876        C877   1.403       .  A
C877        C878   1.400       .  A
C877        H884   1.085       .  S
C878        S880   1.802       .  S
S879        H882   1.408       .  S
S880        H881   1.408       .  S
C885        C886   1.404       .  A
C885        C890   1.413       .  A
C886        C887   1.398       .  A
C886        H895   1.084       .  S
C887        C888   1.415       .  A
C887        S891   1.802       .  S
C888        C889   1.406       .  A
C889        C890   1.402       .  A
C889        H896   1.083       .  S
C890        S892   1.808       .  S
S891        H894   1.408       .  S
S892        H893   1.407       .  S
C897        C898   1.404       .  A
C897        C902   1.415       .  A
C898        C899   1.393       .  A
C898        H907   1.084       .  S
C899        C900   1.412       .  A
C899        S903   1.803       .  S
C900        C901   1.405       .  A
C901        C902   1.403       .  A
C901        H908   1.083       .  S
C902        S904   1.808       .  S
S903        H906   1.408       .  S
S904        H905   1.407       .  S
C909        C910   1.402       .  A
C909        C914   1.415       .  A
C910        C911   1.401       .  A
C910        H919   1.084       .  S
C911        C912   1.415       .  A
C911        S915   1.803       .  S
C912        C913   1.402       .  A
C913        C914   1.398       .  A
C913        H920   1.084       .  S
C914        S916   1.805       .  S
S915        H918   1.407       .  S
S916        H917   1.407       .  S
C921        C922   1.406       .  A
C921        C926   1.419       .  A
C922        C923   1.401       .  A
C922        H931   1.084       .  S
C923        C924   1.413       .  A
C923        S927   1.803       .  S
C924        C925   1.403       .  A
C925        C926   1.401       .  A
C925        H932   1.086       .  S
C926        S928   1.802       .  S
S927        H930   1.407       .  S
S928        H929   1.408       .  S
C933        C934   1.400       .  A
C933        C938   1.412       .  A
C934        C935   1.401       .  A
C934        H943   1.084       .  S
C935        C936   1.416       .  A
C935        S939   1.803       .  S
C936        C937   1.400       .  A
C937        C938   1.394       .  A
C937        H944   1.085       .  S
C938        S940   1.801       .  S
S939        H942   1.407       .  S
S940        H941   1.405       .  S
C945        C946   1.404   1_546  A
C945        C950   1.415       .  A
C946        C947   1.398       .  A
C946        H955   1.084   1_565  S
C947        C948   1.416   1_554  A
C947        S951   1.802       .  S
C948        C949   1.406       .  A
C949        C950   1.401   1_565  A
C949        H956   1.085       .  S
C950        S952   1.802       .  S
S951        H954   1.408       .  S
S952        H953   1.408       .  S
C957        C958   1.410       .  A
C957        C962   1.417       .  A
C958        C959   1.402       .  A
C958        H967   1.084       .  S
C959        C960   1.409       .  A
C959        S963   1.803       .  S
C960        C961   1.401       .  A
C961        C962   1.396       .  A
C961        H968   1.086       .  S
C962        S964   1.802   1_655  S
S963        H966   1.407       .  S
S964        H965   1.408       .  S
C969        C970   1.401       .  A
C969        C974   1.410       .  A
C970        C971   1.400       .  A
C970        H979   1.085       .  S
C971        C972   1.416       .  A
C971        S975   1.801       .  S
C972        C973   1.405       .  A
C973        C974   1.392       .  A
C973        H980   1.085   1_655  S
C974        S976   1.806       .  S
S975        H978   1.407       .  S
S976        H977   1.407       .  S
C981        C982   1.404       .  A
C981        C986   1.416       .  A
C982        C983   1.401       .  A
C982        H991   1.086       .  S
C983        C984   1.417       .  A
C983        S987   1.802       .  S
C984        C985   1.405       .  A
C985        C986   1.400       .  A
C985        H992   1.086       .  S
C986        S988   1.803       .  S
S987        H990   1.408       .  S
S988        H989   1.408       .  S
C993        C994   1.402       .  A
C993        C998   1.409       .  A
C994        C995   1.402       .  A
C994       H1003   1.084       .  S
C995        C996   1.417       .  A
C995        S999   1.801       .  S
C996        C997   1.407       .  A
C997        C998   1.396       .  A
C997       H1004   1.085       .  S
C998       S1000   1.805       .  S
S999       H1002   1.408       .  S
S1000      H1001   1.407       .  S
C1005      C1006   1.401       .  A
C1005      C1010   1.414       .  A
C1006      C1007   1.395       .  A
C1006      H1015   1.085       .  S
C1007      C1008   1.414       .  A
C1007      S1011   1.802       .  S
C1008      C1009   1.404       .  A
C1009      C1010   1.399       .  A
C1009      H1016   1.085       .  S
C1010      S1012   1.803       .  S
S1011      H1014   1.407       .  S
S1012      H1013   1.408       .  S
C1017      C1018   1.406       .  A
C1017      C1022   1.417       .  A
C1018      C1019   1.401       .  A
C1018      H1027   1.082       .  S
C1019      C1020   1.415       .  A
C1019      S1023   1.802       .  S
C1020      C1021   1.405       .  A
C1021      C1022   1.406       .  A
C1021      H1028   1.081       .  S
C1022      S1024   1.809       .  S
S1023      H1026   1.408       .  S
S1024      H1025   1.407       .  S
C1029      C1030   1.406       .  A
C1029      C1034   1.417       .  A
C1030      C1031   1.393       .  A
C1030      H1039   1.082   1_655  S
C1031      C1032   1.409       .  A
C1031      S1035   1.806       .  S
C1032      C1033   1.404       .  A
C1033      C1034   1.406       .  A
C1033      H1040   1.083       .  S
C1034      S1036   1.801       .  S
S1035      H1038   1.407       .  S
S1036      H1037   1.407       .  S
C1041      C1042   1.402       .  A
C1041      C1046   1.408       .  A
C1042      C1043   1.408       .  A
C1042      H1051   1.081       .  S
C1043      C1044   1.417       .  A
C1043      S1047   1.807       .  S
C1044      C1045   1.406       .  A
C1045      C1046   1.394       .  A
C1045      H1052   1.083       .  S
C1046      S1048   1.806       .  S
S1047      H1050   1.407       .  S
S1048      H1049   1.407       .  S
C1053      C1054   1.408       .  A
C1053      C1058   1.418       .  A
C1054      C1055   1.402       .  A
C1054      H1063   1.083       .  S
C1055      C1056   1.411       .  A
C1055      S1059   1.803       .  S
C1056      C1057   1.402       .  A
C1057      C1058   1.399       .  A
C1057      H1064   1.084       .  S
C1058      S1060   1.802   1_655  S
S1059      H1062   1.407       .  S
S1060      H1061   1.408       .  S
C1065      C1066   1.402       .  A
C1065      C1070   1.413       .  A
C1066      C1067   1.400       .  A
C1066      H1075   1.084       .  S
C1067      C1068   1.412       .  A
C1067      S1071   1.803       .  S
C1068      C1069   1.399       .  A
C1069      C1070   1.392       .  A
C1069      H1076   1.084       .  S
C1070      S1072   1.805   1_655  S
S1071      H1074   1.407       .  S
S1072      H1073   1.406       .  S
C1077      C1078   1.402       .  A
C1077      C1082   1.413       .  A
C1078      C1079   1.397       .  A
C1078      H1087   1.082       .  S
C1079      C1080   1.411       .  A
C1079      S1083   1.809       .  S
C1080      C1081   1.402       .  A
C1081      C1082   1.402       .  A
C1081      H1088   1.082       .  S
C1082      S1084   1.803       .  S
S1083      H1086   1.407       .  S
S1084      H1085   1.407       .  S
C1089      C1090   1.405       .  A
C1089      C1094   1.415       .  A
C1090      C1091   1.400       .  A
C1090      H1099   1.086       .  S
C1091      C1092   1.415       .  A
C1091      S1095   1.802       .  S
C1092      C1093   1.405       .  A
C1093      C1094   1.404       .  A
C1093      H1100   1.084   1_455  S
C1094      S1096   1.809   1_455  S
S1095      H1098   1.407       .  S
S1096      H1097   1.407       .  S
C1101      C1102   1.403       .  A
C1101      C1106   1.411       .  A
C1102      C1103   1.402       .  A
C1102      H1111   1.084       .  S
C1103      C1104   1.419       .  A
C1103      S1107   1.800       .  S
C1104      C1105   1.407       .  A
C1105      C1106   1.397       .  A
C1105      H1112   1.084       .  S
C1106      S1108   1.804       .  S
S1107      H1110   1.408       .  S
S1108      H1109   1.407       .  S
C1113      C1114   1.407       .  A
C1113      C1118   1.416       .  A
C1114      C1115   1.392       .  A
C1114      H1123   1.084       .  S
C1115      C1116   1.407       .  A
C1115      S1119   1.804       .  S
C1116      C1117   1.403       .  A
C1117      C1118   1.405       .  A
C1117      H1124   1.083       .  S
C1118      S1120   1.808       .  S
S1119      H1122   1.407       .  S
S1120      H1121   1.407       .  S
C1125      C1126   1.404       .  A
C1125      C1130   1.412       .  A
C1126      C1127   1.397       .  A
C1126      H1135   1.083       .  S
C1127      C1128   1.413       .  A
C1127      S1131   1.804       .  S
C1128      C1129   1.405       .  A
C1129      C1130   1.400       .  A
C1129      H1136   1.083       .  S
C1130      S1132   1.801       .  S
S1131      H1134   1.408       .  S
S1132      H1133   1.407       .  S
C1137      C1138   1.408       .  A
C1137      C1142   1.416       .  A
C1138      C1139   1.401       .  A
C1138      H1147   1.086       .  S
C1139      C1140   1.412       .  A
C1139      S1143   1.803       .  S
C1140      C1141   1.403       .  A
C1141      C1142   1.399       .  A
C1141      H1148   1.087       .  S
C1142      S1144   1.802       .  S
S1143      H1146   1.407       .  S
S1144      H1145   1.408       .  S
C1149      C1150   1.401       .  A
C1149      C1154   1.407       .  A
C1150      C1151   1.399       .  A
C1150      H1159   1.082       .  S
C1151      C1152   1.413       .  A
C1151      S1155   1.801       .  S
C1152      C1153   1.406       .  A
C1153      C1154   1.396       .  A
C1153      H1160   1.080       .  S
C1154      S1156   1.810   1_554  S
S1155      H1158   1.407       .  S
S1156      H1157   1.407   1_556  S
C1161      C1162   1.403       .  A
C1161      C1166   1.414       .  A
C1162      C1163   1.403       .  A
C1162      H1171   1.085       .  S
C1163      C1164   1.413       .  A
C1163      S1167   1.804       .  S
C1164      C1165   1.398       .  A
C1165      C1166   1.394       .  A
C1165      H1172   1.085       .  S
C1166      S1168   1.804       .  S
S1167      H1170   1.407       .  S
S1168      H1169   1.406       .  S
C1173      C1174   1.405       .  A
C1173      C1178   1.414   1_556  A
C1174      C1175   1.395       .  A
C1174      H1183   1.084       .  S
C1175      C1176   1.409       .  A
C1175      S1179   1.804       .  S
C1176      C1177   1.404   1_556  A
C1177      C1178   1.400       .  A
C1177      H1184   1.085       .  S
C1178      S1180   1.803       .  S
S1179      H1182   1.407       .  S
S1180      H1181   1.408       .  S
