geometry optimzed in LAMMPS
_audit_creation_date              2020-12-01 
_audit_creation_method            'lammps2cif' 
_symmetry_space_group_name_H-M    'P1' 
_symmetry_Int_Tables_number       1 
_symmetry_cell_setting            triclinic 
loop_ 
_symmetry_equiv_pos_as_xyz 
  x,y,z 
_cell_length_a                    39.80131095 
_cell_length_b                    40.50804390468424 
_cell_length_c                    40.446980942612036 
_cell_angle_alpha                 90.01223304692188 
_cell_angle_beta                  89.99557086855599 
_cell_angle_gamma                 90.01120545144691 
loop_ 
_atom_site_label 
_atom_site_type_symbol 
_atom_site_fract_x 
_atom_site_fract_y 
_atom_site_fract_z 
_atom_site_charge 
N1          N  0.03696242  0.43652289  0.04111478    -0.03600
N2          N  0.05834362  0.41270205  0.04918465    -0.55700
N3          N  0.45954240  0.45960036  0.06415197    -0.03300
N4          N  0.43821816  0.45170198  0.08809049    -0.57800
N5          N  0.45950350  0.43650091  0.04111793    -0.02900
N6          N  0.43812639  0.41266885  0.04919232    -0.55700
N7          N  0.03691288  0.45961755  0.06415372    -0.02500
N8          N  0.05823267  0.45172389  0.08809318    -0.58200
C9          C  0.07188870  0.42251145  0.07844827     0.98600
C10         C  0.42457329  0.42247881  0.07845263     0.98400
N11         N  0.45948306  0.06309186  0.04113702    -0.03800
N12         N  0.43809253  0.08690690  0.04921129    -0.56300
N13         N  0.03690061  0.04001468  0.06415968    -0.01900
N14         N  0.05822780  0.04791102  0.08809632    -0.57500
N15         N  0.03693900  0.06311446  0.04113561    -0.03800
N16         N  0.05831803  0.08694465  0.04921517    -0.56600
N17         N  0.45953021  0.03999734  0.06416641    -0.01500
N18         N  0.43819797  0.04788465  0.08810343    -0.57600
Mn19       Mn  0.99822163  0.49980805  0.06446868     1.18400
C20         C  0.42453927  0.07709369  0.07846726     1.00700
C21         C  0.07187311  0.07713324  0.07846741     1.01300
N22         N  0.45950783  0.43650749  0.46046025    -0.03800
N23         N  0.43812752  0.41267835  0.45238084    -0.60100
N24         N  0.03691715  0.45962490  0.43743125    -0.02600
N25         N  0.05824946  0.45173823  0.41349429    -0.60800
N26         N  0.03696393  0.43652973  0.46046003    -0.03300
N27         N  0.05835445  0.41271483  0.45238533    -0.60400
N28         N  0.45954698  0.45960730  0.43743614    -0.02200
N29         N  0.43821915  0.45171202  0.41349971    -0.61100
Mn30       Mn  0.49823432  0.43614841  0.50078756     1.10700
C31         C  0.42457252  0.42249047  0.42312876     1.01900
C32         C  0.07190775  0.42252893  0.42312969     1.02000
N33         N  0.03694341  0.06312063  0.46047960    -0.03300
N34         N  0.05831956  0.08695360  0.45240568    -0.57300
N35         N  0.45953443  0.04000468  0.43744164    -0.02700
N36         N  0.43821449  0.04789923  0.41350239    -0.55400
N37         N  0.45948447  0.06309834  0.46048157    -0.04000
N38         N  0.43810299  0.08691921  0.45241270    -0.58300
N39         N  0.03690524  0.04002156  0.43744525    -0.03000
N40         N  0.05822913  0.04792118  0.41350681    -0.55500
Mn41       Mn  0.99821236  0.06347264  0.00080905     1.20200
Mn42       Mn  0.49822593  0.99981392  0.43712771     1.10100
Cl43       Cl  0.99822320  0.99981056  0.00079821    -0.83400
C44         C  0.07187289  0.07714472  0.42314521     0.98900
C45         C  0.42455782  0.07711111  0.42314874     0.98700
C46         C  0.40105116  0.40129314  0.40160730     0.00000
C47         C  0.40105160  0.40128201  0.09997147     0.00000
N48         N  0.29860095  0.41015208  0.00080519    -0.34100
N49         N  0.24824493  0.40863647  0.44915541    -0.54600
N50         N  0.19788715  0.41013541  0.00081133    -0.34100
N51         N  0.24823861  0.40857874  0.05246276    -0.54600
C52         C  0.31645142  0.40071851  0.47402939     0.29500
C53         C  0.31644848  0.40070078  0.02756948     0.29500
C54         C  0.18003623  0.40070669  0.47403500     0.29500
C55         C  0.18003367  0.40067814  0.02757454     0.29500
C56         C  0.27551107  0.41421497  0.43015791     0.38100
C57         C  0.22098142  0.41421817  0.43016242     0.38100
C58         C  0.27550337  0.41416058  0.07145978     0.38100
C59         C  0.22097273  0.41415115  0.07146276     0.38100
C60         C  0.34563328  0.38476007  0.48390756    -0.19400
C61         C  0.34563160  0.38474925  0.01767305    -0.19400
C62         C  0.15084903  0.38474237  0.48391093    -0.19400
C63         C  0.15084759  0.38472414  0.01767686    -0.19400
C64         C  0.26564185  0.42296623  0.39848405    -0.20400
C65         C  0.23085465  0.42296908  0.39848717    -0.20400
C66         C  0.26563128  0.42290242  0.10314063    -0.20400
C67         C  0.23084354  0.42289648  0.10314250    -0.20400
C68         C  0.30868809  0.40878975  0.44110145    -0.15800
C69         C  0.30868273  0.40875396  0.06050541    -0.15800
C70         C  0.18779322  0.40873718  0.06050947    -0.15800
C71         C  0.18780171  0.40879547  0.44111055    -0.15800
H72         H  0.36515229  0.37441250  0.46846132     0.17100
H73         H  0.36514889  0.37439225  0.03310781     0.17100
H74         H  0.13132726  0.37439979  0.46846251     0.17100
H75         H  0.13132444  0.37436533  0.03311149     0.17100
H76         H  0.28174873  0.42813705  0.37755365     0.15400
H77         H  0.21475008  0.42814147  0.37755941     0.15400
H78         H  0.28173690  0.42807699  0.12407083     0.15400
H79         H  0.21473725  0.42806550  0.12407440     0.15400
H80         H  0.27706251  0.42471675  0.00081496     0.28700
H81         H  0.21942744  0.42470575  0.00082166     0.28700
C82         C  0.40104543  0.09831269  0.40163263     0.00000
N83         N  0.40749784  0.49980496  0.30045115    -0.34100
N84         N  0.40594547  0.44820130  0.25079844    -0.54600
N85         N  0.40746488  0.49979474  0.20115187    -0.34100
N86         N  0.40589429  0.05139804  0.25080406    -0.54600
C87         C  0.39812789  0.47304287  0.31810981     0.29500
C88         C  0.39810637  0.02656198  0.31811174     0.29500
C89         C  0.39808303  0.47302671  0.18349948     0.29500
C90         C  0.39805975  0.02654539  0.18350165     0.29500
C91         C  0.41180806  0.42928288  0.27762654     0.38100
C92         C  0.41179797  0.42927850  0.22396236     0.38100
C93         C  0.41174484  0.07032906  0.27763531     0.38100
C94         C  0.41172744  0.07032262  0.22397153     0.38100
C95         C  0.38227597  0.48292782  0.34704228    -0.19400
C96         C  0.38226202  0.01666929  0.34704322    -0.19400
C97         C  0.38220672  0.48290071  0.15458278    -0.19400
C98         C  0.38219351  0.01664288  0.15458343    -0.19400
C99         C  0.42103529  0.39774027  0.26790018    -0.20400
C100        C  0.42103031  0.39773789  0.23367556    -0.20400
C101        C  0.42094218  0.10188132  0.26791484    -0.20400
C102        C  0.42093132  0.10187713  0.23369035    -0.20400
C103        C  0.40622069  0.44013013  0.31030440    -0.15800
C104        C  0.40617780  0.05948020  0.31031185    -0.15800
C105        C  0.40613902  0.05946545  0.19129755    -0.15800
C106        C  0.40619472  0.44011933  0.19129055    -0.15800
H107        H  0.37200810  0.46750687  0.36638452     0.17100
H108        H  0.37198181  0.03208606  0.36638613     0.17100
H109        H  0.37192590  0.46747140  0.13524874     0.17100
H110        H  0.37190126  0.03205396  0.13525005     0.17100
H111        H  0.42655221  0.37689936  0.28373839     0.15400
H112        H  0.42654174  0.37689457  0.21782895     0.15400
H113        H  0.42644421  0.12273190  0.28375700     0.15400
H114        H  0.42642312  0.12272376  0.21784763     0.15400
H115        H  0.42202980  0.49981065  0.27906957     0.28700
H116        H  0.42201579  0.49980714  0.22251889     0.28700
C117        C  0.40100628  0.09828279  0.09998238     0.00000
N118        N  0.29855818  0.08948206  0.00078500    -0.34100
N119        N  0.24820623  0.09104887  0.44913321    -0.54600
N120        N  0.19784360  0.08948160  0.00079116    -0.34100
N121        N  0.24819991  0.09098774  0.05244112    -0.54600
C122        C  0.31641311  0.09893754  0.47402190     0.29500
C123        C  0.31641068  0.09890754  0.02756157     0.29500
C124        C  0.17999524  0.09893172  0.47402705     0.29500
C125        C  0.17999208  0.09891247  0.02756724     0.29500
C126        C  0.27547123  0.08547864  0.43013129     0.38100
C127        C  0.22094070  0.08547594  0.43013466     0.38100
C128        C  0.27546266  0.08540719  0.07143566     0.38100
C129        C  0.22093295  0.08541703  0.07143984     0.38100
C130        C  0.34560173  0.11488653  0.48392013    -0.19400
C131        C  0.34560041  0.11486731  0.01768572    -0.19400
C132        C  0.15081027  0.11487978  0.48392393    -0.19400
C133        C  0.15080837  0.11486795  0.01768932    -0.19400
C134        C  0.26559902  0.07674483  0.39844876    -0.20400
C135        C  0.23081143  0.07674311  0.39845090    -0.20400
C136        C  0.26558803  0.07666563  0.10311309    -0.20400
C137        C  0.23080093  0.07667265  0.10311598    -0.20400
C138        C  0.30865177  0.09088395  0.44108590    -0.15800
C139        C  0.30864346  0.09082270  0.06048677    -0.15800
C140        C  0.18775613  0.09084173  0.06049528    -0.15800
C141        C  0.18776164  0.09088057  0.44109069    -0.15800
H142        H  0.36512607  0.12524398  0.46848617     0.17100
H143        H  0.36512344  0.12520780  0.03313385     0.17100
H144        H  0.13129175  0.12523500  0.46848949     0.17100
H145        H  0.13128806  0.12521298  0.03313565     0.17100
H146        H  0.28170435  0.07158071  0.37751494     0.15400
H147        H  0.21470505  0.07157739  0.37751905     0.15400
H148        H  0.28169170  0.07149688  0.12404240     0.15400
H149        H  0.21469333  0.07150944  0.12404774     0.15400
H150        H  0.27701502  0.07491579  0.00077431     0.28700
H151        H  0.21938341  0.07491903  0.00078097     0.28700
C152        C  0.09543918  0.40134029  0.40161324     0.00000
N153        N  0.49824866  0.29898229  0.40689371    -0.34100
N154        N  0.44563900  0.24981484  0.40556418    -0.54600
N155        N  0.49824475  0.20067661  0.40688745    -0.34100
N156        N  0.05085627  0.24983982  0.40555426    -0.54600
C157        C  0.47105627  0.31620792  0.39690795     0.29500
C158        C  0.02543971  0.31622000  0.39690250     0.29500
C159        C  0.47105431  0.18343739  0.39689617     0.29500
C160        C  0.02543589  0.18345183  0.39688863     0.29500
C161        C  0.42673745  0.27661101  0.41222176     0.38100
C162        C  0.42673766  0.22301381  0.41222328     0.38100
C163        C  0.06975963  0.27664239  0.41220782     0.38100
C164        C  0.06975528  0.22304511  0.41221093     0.38100
C165        C  0.48106792  0.34426539  0.37985632    -0.19400
C166        C  0.01542603  0.34427314  0.37985297    -0.19400
C167        C  0.48106619  0.15538535  0.37983076    -0.19400
C168        C  0.01542456  0.15539495  0.37982509    -0.19400
C169        C  0.39512966  0.26692565  0.42287427    -0.20400
C170        C  0.39513017  0.23269068  0.42287621    -0.20400
C171        C  0.10136721  0.26696782  0.42285520    -0.20400
C172        C  0.10136388  0.23273251  0.42285862    -0.20400
C173        C  0.43776875  0.30909320  0.40600170    -0.15800
C174        C  0.05872761  0.30912024  0.40599043    -0.15800
C175        C  0.05871964  0.19056181  0.40599212    -0.15800
C176        C  0.43777035  0.19053388  0.40600329    -0.15800
H177        H  0.46530778  0.36310960  0.36899431     0.17100
H178        H  0.03118488  0.36312453  0.36898832     0.17100
H179        H  0.46530577  0.13653271  0.36896463     0.17100
H180        H  0.03118539  0.13655094  0.36895326     0.17100
H181        H  0.37424620  0.28277488  0.42933328     0.15400
H182        H  0.37424733  0.21683581  0.42933635     0.15400
H183        H  0.12225194  0.28282408  0.42930985     0.15400
H184        H  0.12224581  0.21688439  0.42931541     0.15400
H185        H  0.49824925  0.27845037  0.42237757     0.28700
H186        H  0.49824501  0.22120592  0.42238380     0.28700
C187        C  0.09539263  0.09834349  0.40162638     0.00000
N188        N  0.08894849  0.49982119  0.20114772    -0.34100
N189        N  0.09050252  0.05142536  0.25079895    -0.54600
N190        N  0.08898440  0.49983142  0.30044404    -0.34100
N191        N  0.09055173  0.44822757  0.25079333    -0.54600
C192        C  0.09832236  0.02658313  0.18349079     0.29500
C193        C  0.09834404  0.47306422  0.18348923     0.29500
C194        C  0.09836822  0.02659941  0.31809561     0.29500
C195        C  0.09839188  0.47308064  0.31809298     0.29500
C196        C  0.08463732  0.07034297  0.22397095     0.38100
C197        C  0.08464864  0.07034757  0.27763502     0.38100
C198        C  0.08469748  0.42929779  0.22396227     0.38100
C199        C  0.08471617  0.42930404  0.27762576     0.38100
C200        C  0.11418153  0.01669826  0.15456227    -0.19400
C201        C  0.11419571  0.48295662  0.15456157    -0.19400
C202        C  0.11424871  0.01672538  0.34701000    -0.19400
C203        C  0.11426237  0.48298299  0.34700902    -0.19400
C204        C  0.07540705  0.10188473  0.23369725    -0.20400
C205        C  0.07541288  0.10188730  0.26792198    -0.20400
C206        C  0.07549445  0.39774699  0.23368255    -0.20400
C207        C  0.07550620  0.39775101  0.26790722    -0.20400
C208        C  0.09022578  0.05949540  0.19129354    -0.15800
C209        C  0.09026831  0.44014660  0.19128665    -0.15800
C210        C  0.09030904  0.44016099  0.31029883    -0.15800
C211        C  0.09025350  0.05950654  0.31030639    -0.15800
H212        H  0.12445335  0.03211964  0.13522236     0.17100
H213        H  0.12448008  0.46753934  0.13522110     0.17100
H214        H  0.12453125  0.03215504  0.36634293     0.17100
H215        H  0.12455656  0.46757151  0.36634117     0.17100
H216        H  0.06988764  0.12272491  0.21785895     0.15400
H217        H  0.06989963  0.12273012  0.28376866     0.15400
H218        H  0.06998858  0.37689749  0.21784024     0.15400
H219        H  0.07001131  0.37690523  0.28375009     0.15400
H220        H  0.07441096  0.49981562  0.22252579     0.28700
H221        H  0.07443017  0.49981912  0.27907918     0.28700
C222        C  0.09539320  0.09833162  0.09998917     0.00000
C223        C  0.09540010  0.40131122  0.09996607     0.00000
N224        N  0.49819733  0.29894760  0.09472106    -0.34100
N225        N  0.44558517  0.24978391  0.09604628    -0.54600
N226        N  0.49819340  0.20064158  0.09469323    -0.34100
N227        N  0.05080286  0.24980894  0.09603153    -0.54600
C228        C  0.47100619  0.31617068  0.10472261     0.29500
C229        C  0.02538788  0.31618515  0.10471477     0.29500
C230        C  0.47100247  0.18340163  0.10468122     0.29500
C231        C  0.02538588  0.18341374  0.10467555     0.29500
C232        C  0.42668652  0.27657999  0.08939394     0.38100
C233        C  0.42668167  0.22298266  0.08938731     0.38100
C234        C  0.06970516  0.27661132  0.08938078     0.38100
C235        C  0.06970590  0.22301411  0.08937260     0.38100
C236        C  0.48101743  0.34422494  0.12179053    -0.19400
C237        C  0.01537607  0.34423462  0.12178468    -0.19400
C238        C  0.48101640  0.15534504  0.12172472    -0.19400
C239        C  0.01537405  0.15535276  0.12172123    -0.19400
C240        C  0.39507802  0.26689472  0.07874403    -0.20400
C241        C  0.39507429  0.23265943  0.07874147    -0.20400
C242        C  0.10131474  0.26693662  0.07873166    -0.20400
C243        C  0.10131565  0.23270166  0.07872764    -0.20400
C244        C  0.43772276  0.30906239  0.09561657    -0.15800
C245        C  0.05867173  0.30909007  0.09560573    -0.15800
C246        C  0.05867432  0.19053078  0.09558645    -0.15800
C247        C  0.43771389  0.19050338  0.09559728    -0.15800
H248        H  0.46525616  0.36306727  0.13266481     0.17100
H249        H  0.03113692  0.36308572  0.13265313     0.17100
H250        H  0.46525818  0.13649179  0.13258677     0.17100
H251        H  0.03113360  0.13650663  0.13258055     0.17100
H252        H  0.37419655  0.28274417  0.07228907     0.15400
H253        H  0.37418980  0.21680453  0.07228275     0.15400
H254        H  0.12219901  0.28279278  0.07227911     0.15400
H255        H  0.12220075  0.21685379  0.07227039     0.15400
H256        H  0.49819680  0.27842102  0.07922109     0.28700
H257        H  0.49819258  0.22117740  0.07921452     0.28700
C258        C  0.08986951  0.36580507  0.09439399    -0.10700
C259        C  0.08069297  0.33739436  0.09322470    -0.12300
C260        C  0.08988776  0.13383710  0.09441554    -0.10700
C261        C  0.08070976  0.16224253  0.09322823    -0.12300
C262        C  0.08992264  0.40771512  0.13536706    -0.10700
C263        C  0.08857257  0.41780529  0.16343210    -0.12300
C264        C  0.08853937  0.08183638  0.16344659    -0.10700
C265        C  0.08990462  0.09193368  0.13538833    -0.12300
C266        C  0.08990672  0.09194114  0.36622618    -0.10700
C267        C  0.08855250  0.08184591  0.33816283    -0.12300
C268        C  0.08073585  0.16226396  0.40837742    -0.10700
C269        C  0.08989155  0.13385060  0.40720602    -0.12300
C270        C  0.08997347  0.40773895  0.36621292    -0.10700
C271        C  0.08862330  0.41782789  0.33815182    -0.12300
C272        C  0.08992790  0.36583220  0.40717776    -0.10700
C273        C  0.08075623  0.33742087  0.40835561    -0.12300
C274        C  0.15932149  0.08927651  0.08270331    -0.10700
C275        C  0.13079480  0.09120397  0.09269163    -0.12300
C276        C  0.15932489  0.08930597  0.41889029    -0.10700
C277        C  0.13079513  0.09122150  0.40891387    -0.12300
C278        C  0.41568416  0.16220312  0.09323261    -0.10700
C279        C  0.40651421  0.13379116  0.09441369    -0.12300
C280        C  0.36560678  0.09114826  0.09267330    -0.10700
C281        C  0.33707928  0.08923342  0.08268663    -0.12300
C282        C  0.40782419  0.08179955  0.16344494    -0.10700
C283        C  0.40647345  0.09188779  0.13538343    -0.12300
C284        C  0.40657316  0.13381880  0.40721023    -0.10700
C285        C  0.41574816  0.16222999  0.40838401    -0.12300
C286        C  0.36563511  0.09120115  0.40892429    -0.10700
C287        C  0.33709742  0.08929715  0.41889132    -0.12300
C288        C  0.40652411  0.09191305  0.36623084    -0.10700
C289        C  0.40787367  0.08182294  0.33816562    -0.12300
C290        C  0.13081028  0.40842015  0.09267198    -0.10700
C291        C  0.15934735  0.41032404  0.08270348    -0.12300
C292        C  0.15936563  0.41038534  0.41891164    -0.10700
C293        C  0.13083858  0.40847158  0.40892416    -0.12300
C294        C  0.40789349  0.41777891  0.16343496    -0.10700
C295        C  0.40653762  0.40768443  0.13537150    -0.12300
C296        C  0.40655224  0.36577460  0.09439435    -0.10700
C297        C  0.41570839  0.33736126  0.09322767    -0.12300
C298        C  0.33711948  0.41032552  0.08270651    -0.10700
C299        C  0.36564917  0.40840596  0.09268307    -0.12300
C300        C  0.36564957  0.40842205  0.40890517    -0.10700
C301        C  0.33712281  0.41035253  0.41889314    -0.12300
C302        C  0.40790548  0.41778761  0.33815005    -0.10700
C303        C  0.40653966  0.40769048  0.36620823    -0.12300
C304        C  0.41573537  0.33738251  0.40836369    -0.10700
C305        C  0.40655671  0.36578775  0.40717979    -0.12300
N306        N  0.03696246  0.43652288  0.54111475    -0.03600
N307        N  0.05834365  0.41270204  0.54918463    -0.55700
N308        N  0.45954243  0.45960037  0.56415192    -0.03300
N309        N  0.43821813  0.45170205  0.58809040    -0.57800
N310        N  0.45950357  0.43650088  0.54111793    -0.02900
N311        N  0.43812646  0.41266882  0.54919233    -0.55700
N312        N  0.03691287  0.45961752  0.56415372    -0.02500
N313        N  0.05823263  0.45172383  0.58809319    -0.58200
C314        C  0.07188868  0.42251142  0.57844828     0.98600
C315        C  0.42457328  0.42247887  0.57845257     0.98400
N316        N  0.45948300  0.06309180  0.54113699    -0.03800
N317        N  0.43809245  0.08690683  0.54921124    -0.56300
N318        N  0.03690056  0.04001471  0.56415972    -0.01900
N319        N  0.05822768  0.04791109  0.58809639    -0.57500
N320        N  0.03693903  0.06311442  0.54113559    -0.03800
N321        N  0.05831807  0.08694462  0.54921512    -0.56600
N322        N  0.45953023  0.03999734  0.56416644    -0.01500
N323        N  0.43819804  0.04788470  0.58810349    -0.57600
Mn324      Mn  0.99822162  0.49980804  0.56446865     1.18400
C325        C  0.42453926  0.07709369  0.57846726     1.00700
C326        C  0.07187304  0.07713328  0.57846744     1.01300
N327        N  0.45950789  0.43650740  0.96046022    -0.03800
N328        N  0.43812761  0.41267824  0.95238080    -0.60100
N329        N  0.03691718  0.45962491  0.93743125    -0.02600
N330        N  0.05824949  0.45173821  0.91349428    -0.60800
N331        N  0.03696393  0.43652975  0.96046003    -0.03300
N332        N  0.05835445  0.41271484  0.95238535    -0.60400
N333        N  0.45954697  0.45960726  0.93743615    -0.02200
N334        N  0.43821909  0.45171202  0.91349977    -0.61100
Mn335      Mn  0.49823433  0.43614838  0.00078756     1.10700
C336        C  0.42457252  0.42249043  0.92312878     1.01900
C337        C  0.07190776  0.42252891  0.92312970     1.02000
N338        N  0.03694339  0.06312060  0.96047960    -0.03300
N339        N  0.05831958  0.08695354  0.95240570    -0.57300
N340        N  0.45953441  0.04000463  0.93744165    -0.02700
N341        N  0.43821443  0.04789914  0.91350242    -0.55400
N342        N  0.45948448  0.06309831  0.96048156    -0.04000
N343        N  0.43810299  0.08691917  0.95241270    -0.58300
N344        N  0.03690520  0.04002154  0.93744524    -0.03000
N345        N  0.05822908  0.04792116  0.91350679    -0.55500
Mn346      Mn  0.99821237  0.06347263  0.50080904     1.20200
Mn347      Mn  0.49822587  0.99981389  0.93712771     1.10100
Cl348      Cl  0.99822314  0.99981055  0.50079820    -0.83400
C349        C  0.07187288  0.07714467  0.92314521     0.98900
C350        C  0.42455777  0.07711103  0.92314878     0.98700
C351        C  0.40105116  0.40129315  0.90160730     0.00000
C352        C  0.40105161  0.40128209  0.59997145     0.00000
N353        N  0.29860090  0.41015207  0.50080519    -0.34100
N354        N  0.24824495  0.40863655  0.94915542    -0.54600
N355        N  0.19788710  0.41013535  0.50081131    -0.34100
N356        N  0.24823859  0.40857875  0.55246275    -0.54600
C357        C  0.31645145  0.40071847  0.97402939     0.29500
C358        C  0.31644842  0.40070072  0.52756947     0.29500
C359        C  0.18003625  0.40070684  0.97403501     0.29500
C360        C  0.18003361  0.40067813  0.52757454     0.29500
C361        C  0.27551111  0.41421496  0.93015791     0.38100
C362        C  0.22098145  0.41421827  0.93016243     0.38100
C363        C  0.27550336  0.41416051  0.57145978     0.38100
C364        C  0.22097272  0.41415122  0.57146274     0.38100
C365        C  0.34563332  0.38476006  0.98390757    -0.19400
C366        C  0.34563153  0.38474919  0.51767303    -0.19400
C367        C  0.15084904  0.38474253  0.98391092    -0.19400
C368        C  0.15084755  0.38472407  0.51767688    -0.19400
C369        C  0.26564189  0.42296620  0.89848404    -0.20400
C370        C  0.23085470  0.42296914  0.89848719    -0.20400
C371        C  0.26563131  0.42290235  0.60314062    -0.20400
C372        C  0.23084357  0.42289648  0.60314249    -0.20400
C373        C  0.30868812  0.40878972  0.94110146    -0.15800
C374        C  0.30868271  0.40875388  0.56050540    -0.15800
C375        C  0.18779319  0.40873726  0.56050947    -0.15800
C376        C  0.18780173  0.40879559  0.94111055    -0.15800
H377        H  0.36515232  0.37441249  0.96846133     0.17100
H378        H  0.36514880  0.37439216  0.53310780     0.17100
H379        H  0.13132726  0.37439999  0.96846250     0.17100
H380        H  0.13132436  0.37436533  0.53311151     0.17100
H381        H  0.28174873  0.42813695  0.87755361     0.15400
H382        H  0.21475014  0.42814158  0.87755945     0.15400
H383        H  0.28173695  0.42807688  0.62407082     0.15400
H384        H  0.21473732  0.42806547  0.62407442     0.15400
H385        H  0.27706244  0.42471674  0.50081498     0.28700
H386        H  0.21942734  0.42470573  0.50082163     0.28700
C387        C  0.40104546  0.09831263  0.90163264     0.00000
N388        N  0.40749777  0.49980499  0.80045115    -0.34100
N389        N  0.40594538  0.44820129  0.75079842    -0.54600
N390        N  0.40746500  0.49979472  0.70115184    -0.34100
N391        N  0.40589425  0.05139811  0.75080404    -0.54600
C392        C  0.39812786  0.47304290  0.81810978     0.29500
C393        C  0.39810627  0.02656198  0.81811173     0.29500
C394        C  0.39808307  0.47302669  0.68349946     0.29500
C395        C  0.39805968  0.02654541  0.68350167     0.29500
C396        C  0.41180808  0.42928293  0.77762653     0.38100
C397        C  0.41179793  0.42927847  0.72396236     0.38100
C398        C  0.41174476  0.07032912  0.77763532     0.38100
C399        C  0.41172742  0.07032269  0.72397152     0.38100
C400        C  0.38227589  0.48292781  0.84704226    -0.19400
C401        C  0.38226196  0.01666926  0.84704324    -0.19400
C402        C  0.38220670  0.48290070  0.65458279    -0.19400
C403        C  0.38219342  0.01664287  0.65458344    -0.19400
C404        C  0.42103538  0.39774034  0.76790019    -0.20400
C405        C  0.42103040  0.39773790  0.73367558    -0.20400
C406        C  0.42094212  0.10188140  0.76791489    -0.20400
C407        C  0.42093130  0.10187723  0.73369038    -0.20400
C408        C  0.40622077  0.44013020  0.81030440    -0.15800
C409        C  0.40617770  0.05948021  0.81031184    -0.15800
C410        C  0.40613897  0.05946549  0.69129755    -0.15800
C411        C  0.40619468  0.44011930  0.69129055    -0.15800
H412        H  0.37200803  0.46750686  0.86638451     0.17100
H413        H  0.37198170  0.03208600  0.86638616     0.17100
H414        H  0.37192578  0.46747140  0.63524880     0.17100
H415        H  0.37190118  0.03205393  0.63525004     0.17100
H416        H  0.42655237  0.37689948  0.78373842     0.15400
H417        H  0.42654192  0.37689457  0.71782901     0.15400
H418        H  0.42644414  0.12273194  0.78375711     0.15400
H419        H  0.42642308  0.12272389  0.71784768     0.15400
H420        H  0.42202977  0.49981071  0.77906956     0.28700
H421        H  0.42201593  0.49980711  0.72251883     0.28700
C422        C  0.40100624  0.09828282  0.59998237     0.00000
N423        N  0.29855810  0.08948205  0.50078496    -0.34100
N424        N  0.24820622  0.09104880  0.94913324    -0.54600
N425        N  0.19784367  0.08948163  0.50079115    -0.34100
N426        N  0.24819987  0.09098779  0.55244113    -0.54600
C427        C  0.31641314  0.09893750  0.97402192     0.29500
C428        C  0.31641061  0.09890756  0.52756154     0.29500
C429        C  0.17999520  0.09893169  0.97402705     0.29500
C430        C  0.17999215  0.09891255  0.52756725     0.29500
C431        C  0.27547121  0.08547864  0.93013130     0.38100
C432        C  0.22094069  0.08547593  0.93013466     0.38100
C433        C  0.27546262  0.08540723  0.57143565     0.38100
C434        C  0.22093292  0.08541711  0.57143987     0.38100
C435        C  0.34560179  0.11488647  0.98392012    -0.19400
C436        C  0.34560030  0.11486738  0.51768572    -0.19400
C437        C  0.15081021  0.11487974  0.98392390    -0.19400
C438        C  0.15080848  0.11486808  0.51768934    -0.19400
C439        C  0.26559902  0.07674494  0.89844873    -0.20400
C440        C  0.23081143  0.07674321  0.89845086    -0.20400
C441        C  0.26558801  0.07666567  0.60311307    -0.20400
C442        C  0.23080092  0.07667276  0.60311602    -0.20400
C443        C  0.30865177  0.09088390  0.94108592    -0.15800
C444        C  0.30864342  0.09082267  0.56048672    -0.15800
C445        C  0.18775612  0.09084174  0.56049527    -0.15800
C446        C  0.18776162  0.09088053  0.94109069    -0.15800
H447        H  0.36512608  0.12524396  0.96848613     0.17100
H448        H  0.36512331  0.12520790  0.53313386     0.17100
H449        H  0.13129175  0.12523503  0.96848942     0.17100
H450        H  0.13128818  0.12521314  0.53313566     0.17100
H451        H  0.28170439  0.07158085  0.87751493     0.15400
H452        H  0.21470503  0.07157753  0.87751901     0.15400
H453        H  0.28169169  0.07149679  0.62404234     0.15400
H454        H  0.21469335  0.07150952  0.62404780     0.15400
H455        H  0.27701498  0.07491582  0.50077426     0.28700
H456        H  0.21938345  0.07491908  0.50078094     0.28700
C457        C  0.09543918  0.40134024  0.90161325     0.00000
N458        N  0.49824866  0.29898224  0.90689371    -0.34100
N459        N  0.44563900  0.24981485  0.90556417    -0.54600
N460        N  0.49824475  0.20067660  0.90688743    -0.34100
N461        N  0.05085627  0.24983979  0.90555427    -0.54600
C462        C  0.47105628  0.31620791  0.89690794     0.29500
C463        C  0.02543968  0.31621995  0.89690248     0.29500
C464        C  0.47105433  0.18343738  0.89689617     0.29500
C465        C  0.02543590  0.18345186  0.89688864     0.29500
C466        C  0.42673744  0.27661103  0.91222176     0.38100
C467        C  0.42673766  0.22301381  0.91222328     0.38100
C468        C  0.06975960  0.27664237  0.91220782     0.38100
C469        C  0.06975531  0.22304510  0.91221092     0.38100
C470        C  0.48106796  0.34426537  0.87985631    -0.19400
C471        C  0.01542600  0.34427309  0.87985296    -0.19400
C472        C  0.48106623  0.15538532  0.87983077    -0.19400
C473        C  0.01542457  0.15539498  0.87982512    -0.19400
C474        C  0.39512964  0.26692569  0.92287429    -0.20400
C475        C  0.39513018  0.23269070  0.92287621    -0.20400
C476        C  0.10136716  0.26696785  0.92285520    -0.20400
C477        C  0.10136389  0.23273255  0.92285860    -0.20400
C478        C  0.43776875  0.30909321  0.90600169    -0.15800
C479        C  0.05872759  0.30912021  0.90599038    -0.15800
C480        C  0.05871968  0.19056181  0.90599211    -0.15800
C481        C  0.43777037  0.19053387  0.90600329    -0.15800
H482        H  0.46530784  0.36310960  0.86899430     0.17100
H483        H  0.03118485  0.36312450  0.86898831     0.17100
H484        H  0.46530586  0.13653266  0.86896460     0.17100
H485        H  0.03118538  0.13655097  0.86895329     0.17100
H486        H  0.37424620  0.28277495  0.92933331     0.15400
H487        H  0.37424737  0.21683579  0.92933631     0.15400
H488        H  0.12225187  0.28282414  0.92930987     0.15400
H489        H  0.12224587  0.21688451  0.92931539     0.15400
H490        H  0.49824921  0.27845031  0.92237756     0.28700
H491        H  0.49824501  0.22120595  0.92238379     0.28700
C492        C  0.09539260  0.09834346  0.90162638     0.00000
N493        N  0.08894843  0.49982122  0.70114770    -0.34100
N494        N  0.09050247  0.05142542  0.75079894    -0.54600
N495        N  0.08898447  0.49983143  0.80044406    -0.34100
N496        N  0.09055169  0.44822757  0.75079334    -0.54600
C497        C  0.09832227  0.02658318  0.68349077     0.29500
C498        C  0.09834398  0.47306423  0.68348924     0.29500
C499        C  0.09836830  0.02659943  0.81809561     0.29500
C500        C  0.09839195  0.47308063  0.81809297     0.29500
C501        C  0.08463723  0.07034303  0.72397095     0.38100
C502        C  0.08464859  0.07034760  0.77763502     0.38100
C503        C  0.08469743  0.42929780  0.72396228     0.38100
C504        C  0.08471620  0.42930402  0.77762577     0.38100
C505        C  0.11418145  0.01669831  0.65456225    -0.19400
C506        C  0.11419563  0.48295662  0.65456157    -0.19400
C507        C  0.11424882  0.01672538  0.84700998    -0.19400
C508        C  0.11426247  0.48298298  0.84700899    -0.19400
C509        C  0.07540694  0.10188479  0.73369725    -0.20400
C510        C  0.07541277  0.10188733  0.76792199    -0.20400
C511        C  0.07549442  0.39774699  0.73368256    -0.20400
C512        C  0.07550621  0.39775100  0.76790722    -0.20400
C513        C  0.09022569  0.05949545  0.69129354    -0.15800
C514        C  0.09026831  0.44014659  0.69128667    -0.15800
C515        C  0.09030911  0.44016096  0.81029883    -0.15800
C516        C  0.09025355  0.05950657  0.81030640    -0.15800
H517        H  0.12445328  0.03211968  0.63522233     0.17100
H518        H  0.12448001  0.46753930  0.63522114     0.17100
H519        H  0.12453141  0.03215505  0.86634288     0.17100
H520        H  0.12455670  0.46757146  0.86634108     0.17100
H521        H  0.06988752  0.12272499  0.71785895     0.15400
H522        H  0.06989954  0.12273014  0.78376870     0.15400
H523        H  0.06998861  0.37689746  0.71784026     0.15400
H524        H  0.07001139  0.37690521  0.78375008     0.15400
H525        H  0.07441092  0.49981566  0.72252578     0.28700
H526        H  0.07443025  0.49981916  0.77907918     0.28700
C527        C  0.09539317  0.09833164  0.59998917     0.00000
C528        C  0.09540006  0.40131119  0.59996609     0.00000
N529        N  0.49819731  0.29894756  0.59472107    -0.34100
N530        N  0.44558514  0.24978393  0.59604627    -0.54600
N531        N  0.49819343  0.20064155  0.59469322    -0.34100
N532        N  0.05080283  0.24980892  0.59603156    -0.54600
C533        C  0.47100616  0.31617065  0.60472260     0.29500
C534        C  0.02538787  0.31618511  0.60471479     0.29500
C535        C  0.47100250  0.18340161  0.60468122     0.29500
C536        C  0.02538582  0.18341371  0.60467554     0.29500
C537        C  0.42668646  0.27658000  0.58939394     0.38100
C538        C  0.42668168  0.22298265  0.58938730     0.38100
C539        C  0.06970513  0.27661129  0.58938079     0.38100
C540        C  0.06970584  0.22301409  0.58937261     0.38100
C541        C  0.48101741  0.34422489  0.62179053    -0.19400
C542        C  0.01537609  0.34423459  0.62178469    -0.19400
C543        C  0.48101640  0.15534504  0.62172476    -0.19400
C544        C  0.01537396  0.15535274  0.62172123    -0.19400
C545        C  0.39507796  0.26689468  0.57874405    -0.20400
C546        C  0.39507429  0.23265938  0.57874148    -0.20400
C547        C  0.10131470  0.26693660  0.57873164    -0.20400
C548        C  0.10131559  0.23270164  0.57872763    -0.20400
C549        C  0.43772271  0.30906241  0.59561655    -0.15800
C550        C  0.05867171  0.30909004  0.59560572    -0.15800
C551        C  0.05867425  0.19053076  0.59558644    -0.15800
C552        C  0.43771393  0.19050338  0.59559726    -0.15800
H553        H  0.46525610  0.36306719  0.63266479     0.17100
H554        H  0.03113696  0.36308569  0.63265310     0.17100
H555        H  0.46525817  0.13649181  0.63258685     0.17100
H556        H  0.03113351  0.13650659  0.63258053     0.17100
H557        H  0.37419644  0.28274406  0.57228907     0.15400
H558        H  0.37418984  0.21680442  0.57228278     0.15400
H559        H  0.12219896  0.28279278  0.57227908     0.15400
H560        H  0.12220067  0.21685375  0.57227037     0.15400
H561        H  0.49819680  0.27842098  0.57922109     0.28700
H562        H  0.49819256  0.22117735  0.57921448     0.28700
C563        C  0.08986944  0.36580505  0.59439400    -0.10700
C564        C  0.08069292  0.33739435  0.59322469    -0.12300
C565        C  0.08988772  0.13383710  0.59441555    -0.10700
C566        C  0.08070968  0.16224251  0.59322823    -0.12300
C567        C  0.08992257  0.40771510  0.63536707    -0.10700
C568        C  0.08857254  0.41780526  0.66343212    -0.12300
C569        C  0.08853935  0.08183644  0.66344660    -0.10700
C570        C  0.08990465  0.09193371  0.63538834    -0.12300
C571        C  0.08990666  0.09194118  0.86622618    -0.10700
C572        C  0.08855246  0.08184593  0.83816283    -0.12300
C573        C  0.08073588  0.16226396  0.90837743    -0.10700
C574        C  0.08989153  0.13385058  0.90720605    -0.12300
C575        C  0.08997342  0.40773891  0.86621293    -0.10700
C576        C  0.08862327  0.41782786  0.83815182    -0.12300
C577        C  0.08992793  0.36583214  0.90717772    -0.10700
C578        C  0.08075624  0.33742082  0.90835549    -0.12300
C579        C  0.15932144  0.08927646  0.58270326    -0.10700
C580        C  0.13079475  0.09120396  0.59269158    -0.12300
C581        C  0.15932488  0.08930592  0.91889027    -0.10700
C582        C  0.13079512  0.09122145  0.90891384    -0.12300
C583        C  0.41568418  0.16220313  0.59323261    -0.10700
C584        C  0.40651421  0.13379118  0.59441370    -0.12300
C585        C  0.36560675  0.09114833  0.59267325    -0.10700
C586        C  0.33707926  0.08923342  0.58268655    -0.12300
C587        C  0.40782411  0.08179956  0.66344493    -0.10700
C588        C  0.40647338  0.09188778  0.63538342    -0.12300
C589        C  0.40657326  0.13381873  0.90721024    -0.10700
C590        C  0.41574824  0.16222993  0.90838402    -0.12300
C591        C  0.36563510  0.09120113  0.90892426    -0.10700
C592        C  0.33709740  0.08929711  0.91889131    -0.12300
C593        C  0.40652418  0.09191298  0.86623087    -0.10700
C594        C  0.40787365  0.08182290  0.83816563    -0.12300
C595        C  0.13081025  0.40842010  0.59267199    -0.10700
C596        C  0.15934733  0.41032403  0.58270351    -0.12300
C597        C  0.15936565  0.41038533  0.91891161    -0.10700
C598        C  0.13083859  0.40847153  0.90892414    -0.12300
C599        C  0.40789347  0.41777891  0.66343497    -0.10700
C600        C  0.40653767  0.40768453  0.63537147    -0.12300
C601        C  0.40655223  0.36577469  0.59439435    -0.10700
C602        C  0.41570836  0.33736132  0.59322768    -0.12300
C603        C  0.33711947  0.41032547  0.58270649    -0.10700
C604        C  0.36564916  0.40840599  0.59268308    -0.12300
C605        C  0.36564959  0.40842208  0.90890520    -0.10700
C606        C  0.33712285  0.41035260  0.91889318    -0.12300
C607        C  0.40790560  0.41778773  0.83815008    -0.10700
C608        C  0.40653968  0.40769058  0.86620824    -0.12300
C609        C  0.41573537  0.33738251  0.90836367    -0.10700
C610        C  0.40655669  0.36578774  0.90717975    -0.12300
N611        N  0.03696245  0.93652286  0.04111478    -0.03600
N612        N  0.05834364  0.91270201  0.04918465    -0.55700
N613        N  0.45954240  0.95960035  0.06415195    -0.03300
N614        N  0.43821817  0.95170198  0.08809047    -0.57800
N615        N  0.45950351  0.93650088  0.04111793    -0.02900
N616        N  0.43812640  0.91266882  0.04919233    -0.55700
N617        N  0.03691291  0.95961752  0.06415372    -0.02500
N618        N  0.05823270  0.95172385  0.08809317    -0.58200
C619        C  0.07188873  0.92251141  0.07844827     0.98600
C620        C  0.42457330  0.92247882  0.07845262     0.98400
N621        N  0.45948308  0.56309183  0.04113702    -0.03800
N622        N  0.43809255  0.58690686  0.04921129    -0.56300
N623        N  0.03690061  0.54001470  0.06415970    -0.01900
N624        N  0.05822778  0.54791106  0.08809634    -0.57500
N625        N  0.03693903  0.56311445  0.04113560    -0.03800
N626        N  0.05831806  0.58694464  0.04921514    -0.56600
N627        N  0.45953023  0.53999732  0.06416643    -0.01500
N628        N  0.43819800  0.54788464  0.08810345    -0.57600
Mn629      Mn  0.99822166  0.99980805  0.06446867     1.18400
C630        C  0.42453930  0.57709367  0.07846727     1.00700
C631        C  0.07187311  0.57713327  0.07846741     1.01300
N632        N  0.45950785  0.93650746  0.46046025    -0.03800
N633        N  0.43812755  0.91267831  0.45238083    -0.60100
N634        N  0.03691706  0.95962487  0.43743123    -0.02600
N635        N  0.05824936  0.95173819  0.41349426    -0.60800
N636        N  0.03696387  0.93652973  0.46046003    -0.03300
N637        N  0.05835443  0.91271486  0.45238536    -0.60400
N638        N  0.45954701  0.95960728  0.43743614    -0.02200
N639        N  0.43821918  0.95171199  0.41349971    -0.61100
Mn640      Mn  0.49823432  0.93614838  0.50078756     1.10700
C641        C  0.42457254  0.92249044  0.42312875     1.01900
C642        C  0.07190771  0.92252893  0.42312970     1.02000
N643        N  0.03694340  0.56312063  0.46047959    -0.03300
N644        N  0.05831958  0.58695358  0.45240568    -0.57300
N645        N  0.45953433  0.54000463  0.43744168    -0.02700
N646        N  0.43821436  0.54789915  0.41350244    -0.55400
N647        N  0.45948444  0.56309834  0.46048156    -0.04000
N648        N  0.43810300  0.58691923  0.45241267    -0.58300
N649        N  0.03690525  0.54002155  0.43744526    -0.03000
N650        N  0.05822915  0.54792114  0.41350683    -0.55500
Mn651      Mn  0.99821236  0.56347260  0.00080905     1.20200
Mn652      Mn  0.49822588  0.49981391  0.43712771     1.10100
Cl653      Cl  0.99822318  0.49981050  0.00079820    -0.83400
C654        C  0.07187292  0.57714468  0.42314522     0.98900
C655        C  0.42455777  0.57711109  0.42314875     0.98700
C656        C  0.40105116  0.90129315  0.40160729     0.00000
C657        C  0.40105159  0.90128208  0.09997147     0.00000
N658        N  0.29860095  0.91015214  0.00080520    -0.34100
N659        N  0.24824495  0.90863657  0.44915542    -0.54600
N660        N  0.19788716  0.91013538  0.00081131    -0.34100
N661        N  0.24823862  0.90857877  0.05246275    -0.54600
C662        C  0.31645144  0.90071847  0.47402938     0.29500
C663        C  0.31644844  0.90070075  0.02756948     0.29500
C664        C  0.18003623  0.90070683  0.47403501     0.29500
C665        C  0.18003370  0.90067814  0.02757454     0.29500
C666        C  0.27551110  0.91421499  0.43015791     0.38100
C667        C  0.22098144  0.91421829  0.43016243     0.38100
C668        C  0.27550338  0.91416054  0.07145979     0.38100
C669        C  0.22097275  0.91415124  0.07146274     0.38100
C670        C  0.34563330  0.88476003  0.48390757    -0.19400
C671        C  0.34563154  0.88474916  0.01767304    -0.19400
C672        C  0.15084903  0.88474250  0.48391092    -0.19400
C673        C  0.15084763  0.88472411  0.01767687    -0.19400
C674        C  0.26564189  0.92296623  0.39848404    -0.20400
C675        C  0.23085469  0.92296916  0.39848717    -0.20400
C676        C  0.26563131  0.92290238  0.10314064    -0.20400
C677        C  0.23084357  0.92289650  0.10314250    -0.20400
C678        C  0.30868812  0.90878975  0.44110146    -0.15800
C679        C  0.30868273  0.90875391  0.06050542    -0.15800
C680        C  0.18779324  0.90873727  0.06050946    -0.15800
C681        C  0.18780172  0.90879561  0.44111055    -0.15800
H682        H  0.36515231  0.87441247  0.46846133     0.17100
H683        H  0.36514881  0.87439212  0.03310781     0.17100
H684        H  0.13132727  0.87439992  0.46846250     0.17100
H685        H  0.13132447  0.87436532  0.03311151     0.17100
H686        H  0.28174877  0.92813697  0.37755362     0.15400
H687        H  0.21475013  0.92814160  0.37755943     0.15400
H688        H  0.28173694  0.92807691  0.12407085     0.15400
H689        H  0.21473729  0.92806549  0.12407442     0.15400
H690        H  0.27706253  0.92471691  0.00081499     0.28700
H691        H  0.21942741  0.92470578  0.00082163     0.28700
C692        C  0.40104542  0.59831267  0.40163263     0.00000
N693        N  0.40749785  0.99980501  0.30045116    -0.34100
N694        N  0.40594536  0.94820130  0.25079843    -0.54600
N695        N  0.40746493  0.99979473  0.20115187    -0.34100
N696        N  0.40589433  0.55139807  0.25080404    -0.54600
C697        C  0.39812786  0.97304292  0.31810979     0.29500
C698        C  0.39810638  0.52656195  0.31811173     0.29500
C699        C  0.39808305  0.97302672  0.18349946     0.29500
C700        C  0.39805970  0.52654539  0.18350166     0.29500
C701        C  0.41180803  0.92928293  0.27762653     0.38100
C702        C  0.41179792  0.92927849  0.22396236     0.38100
C703        C  0.41174488  0.57032908  0.27763532     0.38100
C704        C  0.41172744  0.57032265  0.22397153     0.38100
C705        C  0.38227588  0.98292786  0.34704223    -0.19400
C706        C  0.38226207  0.51666926  0.34704324    -0.19400
C707        C  0.38220674  0.98290074  0.15458275    -0.19400
C708        C  0.38219347  0.51664285  0.15458343    -0.19400
C709        C  0.42103532  0.89774034  0.26790019    -0.20400
C710        C  0.42103033  0.89773791  0.23367557    -0.20400
C711        C  0.42094221  0.60188136  0.26791489    -0.20400
C712        C  0.42093132  0.60187717  0.23369038    -0.20400
C713        C  0.40622070  0.94013019  0.31030440    -0.15800
C714        C  0.40617783  0.55948018  0.31031184    -0.15800
C715        C  0.40613900  0.55946546  0.19129754    -0.15800
C716        C  0.40619471  0.94011933  0.19129055    -0.15800
H717        H  0.37200796  0.96750693  0.36638445     0.17100
H718        H  0.37198183  0.53208604  0.36638614     0.17100
H719        H  0.37192589  0.96747145  0.13524870     0.17100
H720        H  0.37190127  0.53205387  0.13524998     0.17100
H721        H  0.42655228  0.87689946  0.28373841     0.15400
H722        H  0.42654181  0.87689456  0.21782900     0.15400
H723        H  0.42644424  0.62273192  0.28375707     0.15400
H724        H  0.42642311  0.62272382  0.21784769     0.15400
H725        H  0.42202985  0.99981070  0.27906960     0.28700
H726        H  0.42201580  0.99980712  0.22251890     0.28700
C727        C  0.40100628  0.59828278  0.09998237     0.00000
N728        N  0.29855816  0.58948204  0.00078498    -0.34100
N729        N  0.24820625  0.59104883  0.44913322    -0.54600
N730        N  0.19784363  0.58948160  0.00079118    -0.34100
N731        N  0.24819991  0.59098777  0.05244113    -0.54600
C732        C  0.31641312  0.59893750  0.47402192     0.29500
C733        C  0.31641068  0.59890751  0.02756155     0.29500
C734        C  0.17999526  0.59893169  0.47402705     0.29500
C735        C  0.17999211  0.59891256  0.02756724     0.29500
C736        C  0.27547124  0.58547861  0.43013130     0.38100
C737        C  0.22094072  0.58547595  0.43013466     0.38100
C738        C  0.27546266  0.58540716  0.07143565     0.38100
C739        C  0.22093294  0.58541708  0.07143983     0.38100
C740        C  0.34560175  0.61488648  0.48392014    -0.19400
C741        C  0.34560040  0.61486731  0.01768570    -0.19400
C742        C  0.15081030  0.61487974  0.48392393    -0.19400
C743        C  0.15080843  0.61486807  0.01768930    -0.19400
C744        C  0.26559903  0.57674484  0.39844875    -0.20400
C745        C  0.23081145  0.57674319  0.39845088    -0.20400
C746        C  0.26558801  0.57666559  0.10311307    -0.20400
C747        C  0.23080091  0.57667267  0.10311595    -0.20400
C748        C  0.30865178  0.59088391  0.44108591    -0.15800
C749        C  0.30864347  0.59082264  0.06048675    -0.15800
C750        C  0.18775612  0.59084178  0.06049527    -0.15800
C751        C  0.18776166  0.59088054  0.44109069    -0.15800
H752        H  0.36512609  0.62524393  0.46848617     0.17100
H753        H  0.36512346  0.62520778  0.03313382     0.17100
H754        H  0.13129178  0.62523496  0.46848949     0.17100
H755        H  0.13128812  0.62521312  0.03313562     0.17100
H756        H  0.28170437  0.57158067  0.37751495     0.15400
H757        H  0.21470506  0.57157754  0.37751901     0.15400
H758        H  0.28169163  0.57149680  0.12404241     0.15400
H759        H  0.21469330  0.57150941  0.12404768     0.15400
H760        H  0.27701503  0.57491576  0.00077431     0.28700
H761        H  0.21938340  0.57491904  0.00078100     0.28700
C762        C  0.09543915  0.90134027  0.40161325     0.00000
N763        N  0.49824865  0.79898226  0.40689371    -0.34100
N764        N  0.44563902  0.74981486  0.40556418    -0.54600
N765        N  0.49824476  0.70067658  0.40688746    -0.34100
N766        N  0.05085628  0.74983979  0.40555426    -0.54600
C767        C  0.47105628  0.81620791  0.39690795     0.29500
C768        C  0.02543972  0.81621996  0.39690250     0.29500
C769        C  0.47105432  0.68343738  0.39689617     0.29500
C770        C  0.02543589  0.68345180  0.39688864     0.29500
C771        C  0.42673747  0.77661104  0.41222177     0.38100
C772        C  0.42673766  0.72301382  0.41222328     0.38100
C773        C  0.06975964  0.77664237  0.41220781     0.38100
C774        C  0.06975530  0.72304509  0.41221093     0.38100
C775        C  0.48106793  0.84426537  0.37985631    -0.19400
C776        C  0.01542605  0.84427310  0.37985297    -0.19400
C777        C  0.48106621  0.65538534  0.37983076    -0.19400
C778        C  0.01542456  0.65539492  0.37982510    -0.19400
C779        C  0.39512967  0.76692568  0.42287427    -0.20400
C780        C  0.39513017  0.73269070  0.42287621    -0.20400
C781        C  0.10136720  0.76696782  0.42285519    -0.20400
C782        C  0.10136390  0.73273251  0.42285862    -0.20400
C783        C  0.43776876  0.80909322  0.40600170    -0.15800
C784        C  0.05872762  0.80912021  0.40599042    -0.15800
C785        C  0.05871966  0.69056178  0.40599212    -0.15800
C786        C  0.43777036  0.69053388  0.40600329    -0.15800
H787        H  0.46530779  0.86310958  0.36899431     0.17100
H788        H  0.03118491  0.86312449  0.36898832     0.17100
H789        H  0.46530580  0.63653271  0.36896460     0.17100
H790        H  0.03118536  0.63655090  0.36895324     0.17100
H791        H  0.37424624  0.78277495  0.42933326     0.15400
H792        H  0.37424734  0.71683580  0.42933632     0.15400
H793        H  0.12225192  0.78282409  0.42930984     0.15400
H794        H  0.12224585  0.71688444  0.42931542     0.15400
H795        H  0.49824925  0.77845035  0.42237758     0.28700
H796        H  0.49824503  0.72120589  0.42238381     0.28700
C797        C  0.09539266  0.59834345  0.40162639     0.00000
N798        N  0.08894851  0.99982121  0.20114772    -0.34100
N799        N  0.09050243  0.55142535  0.25079894    -0.54600
N800        N  0.08898441  0.99983141  0.30044404    -0.34100
N801        N  0.09055163  0.94822755  0.25079333    -0.54600
C802        C  0.09832233  0.52658311  0.18349079     0.29500
C803        C  0.09834405  0.97306422  0.18348925     0.29500
C804        C  0.09836823  0.52659942  0.31809560     0.29500
C805        C  0.09839190  0.97308063  0.31809297     0.29500
C806        C  0.08463725  0.57034296  0.22397095     0.38100
C807        C  0.08464862  0.57034757  0.27763502     0.38100
C808        C  0.08469739  0.92929778  0.22396227     0.38100
C809        C  0.08471613  0.92930400  0.27762577     0.38100
C810        C  0.11418154  0.51669826  0.15456228    -0.19400
C811        C  0.11419571  0.98295662  0.15456158    -0.19400
C812        C  0.11424873  0.51672538  0.34700999    -0.19400
C813        C  0.11426239  0.98298299  0.34700901    -0.19400
C814        C  0.07540704  0.60188474  0.23369724    -0.20400
C815        C  0.07541290  0.60188733  0.26792198    -0.20400
C816        C  0.07549437  0.89774697  0.23368255    -0.20400
C817        C  0.07550618  0.89775096  0.26790723    -0.20400
C818        C  0.09022568  0.55949537  0.19129353    -0.15800
C819        C  0.09026831  0.94014659  0.19128666    -0.15800
C820        C  0.09030907  0.94016096  0.31029882    -0.15800
C821        C  0.09025352  0.55950654  0.31030639    -0.15800
H822        H  0.12445337  0.53211966  0.13522238     0.17100
H823        H  0.12448009  0.96753932  0.13522113     0.17100
H824        H  0.12453129  0.53215503  0.36634292     0.17100
H825        H  0.12455658  0.96757152  0.36634117     0.17100
H826        H  0.06988758  0.62272491  0.21785894     0.15400
H827        H  0.06989965  0.62273014  0.28376867     0.15400
H828        H  0.06998846  0.87689748  0.21784024     0.15400
H829        H  0.07001138  0.87690516  0.28375009     0.15400
H830        H  0.07441101  0.99981564  0.22252580     0.28700
H831        H  0.07443019  0.99981912  0.27907917     0.28700
C832        C  0.09539320  0.59833164  0.09998918     0.00000
C833        C  0.09540013  0.90131118  0.09996607     0.00000
N834        N  0.49819731  0.79894758  0.09472107    -0.34100
N835        N  0.44558508  0.74978395  0.09604629    -0.54600
N836        N  0.49819339  0.70064157  0.09469322    -0.34100
N837        N  0.05080285  0.74980891  0.09603155    -0.54600
C838        C  0.47100617  0.81617068  0.10472261     0.29500
C839        C  0.02538790  0.81618513  0.10471478     0.29500
C840        C  0.47100245  0.68340164  0.10468124     0.29500
C841        C  0.02538585  0.68341372  0.10467553     0.29500
C842        C  0.42668643  0.77658003  0.08939395     0.38100
C843        C  0.42668161  0.72298268  0.08938732     0.38100
C844        C  0.06970517  0.77661128  0.08938079     0.38100
C845        C  0.06970588  0.72301407  0.08937260     0.38100
C846        C  0.48101744  0.84422493  0.12179054    -0.19400
C847        C  0.01537612  0.84423461  0.12178468    -0.19400
C848        C  0.48101636  0.65534504  0.12172477    -0.19400
C849        C  0.01537398  0.65535275  0.12172123    -0.19400
C850        C  0.39507792  0.76689474  0.07874403    -0.20400
C851        C  0.39507424  0.73265944  0.07874148    -0.20400
C852        C  0.10131474  0.76693655  0.07873165    -0.20400
C853        C  0.10131564  0.73270159  0.07872761    -0.20400
C854        C  0.43772272  0.80906244  0.09561655    -0.15800
C855        C  0.05867175  0.80909004  0.09560573    -0.15800
C856        C  0.05867429  0.69053076  0.09558645    -0.15800
C857        C  0.43771387  0.69050339  0.09559727    -0.15800
H858        H  0.46525618  0.86306727  0.13266481     0.17100
H859        H  0.03113696  0.86308572  0.13265310     0.17100
H860        H  0.46525811  0.63649181  0.13258687     0.17100
H861        H  0.03113349  0.63650659  0.13258055     0.17100
H862        H  0.37419642  0.78274413  0.07228900     0.15400
H863        H  0.37418977  0.71680451  0.07228277     0.15400
H864        H  0.12219902  0.78279272  0.07227911     0.15400
H865        H  0.12220072  0.71685370  0.07227034     0.15400
H866        H  0.49819679  0.77842099  0.07922110     0.28700
H867        H  0.49819253  0.72117738  0.07921449     0.28700
C868        C  0.08986954  0.86580503  0.09439399    -0.10700
C869        C  0.08069300  0.83739432  0.09322470    -0.12300
C870        C  0.08988778  0.63383711  0.09441555    -0.10700
C871        C  0.08070975  0.66224252  0.09322824    -0.12300
C872        C  0.08992267  0.90771509  0.13536707    -0.10700
C873        C  0.08857261  0.91780527  0.16343210    -0.12300
C874        C  0.08853935  0.58183634  0.16344658    -0.10700
C875        C  0.08990464  0.59193368  0.13538834    -0.12300
C876        C  0.08990675  0.59194111  0.36622618    -0.10700
C877        C  0.08855253  0.58184589  0.33816283    -0.12300
C878        C  0.08073586  0.66226393  0.40837742    -0.10700
C879        C  0.08989157  0.63385057  0.40720602    -0.12300
C880        C  0.08997346  0.90773892  0.36621293    -0.10700
C881        C  0.08862333  0.91782786  0.33815182    -0.12300
C882        C  0.08992788  0.86583218  0.40717777    -0.10700
C883        C  0.08075625  0.83742084  0.40835561    -0.12300
C884        C  0.15932146  0.58927648  0.08270326    -0.10700
C885        C  0.13079479  0.59120396  0.09269162    -0.12300
C886        C  0.15932491  0.58930594  0.41889029    -0.10700
C887        C  0.13079516  0.59122146  0.40891387    -0.12300
C888        C  0.41568416  0.66220312  0.09323260    -0.10700
C889        C  0.40651422  0.63379115  0.09441369    -0.12300
C890        C  0.36560680  0.59114825  0.09267323    -0.10700
C891        C  0.33707931  0.58923337  0.08268656    -0.12300
C892        C  0.40782415  0.58179954  0.16344493    -0.10700
C893        C  0.40647337  0.59188777  0.13538342    -0.12300
C894        C  0.40657317  0.63381878  0.40721023    -0.10700
C895        C  0.41574818  0.66222997  0.40838401    -0.12300
C896        C  0.36563509  0.59120113  0.40892427    -0.10700
C897        C  0.33709740  0.58929712  0.41889131    -0.12300
C898        C  0.40652412  0.59191302  0.36623085    -0.10700
C899        C  0.40787370  0.58182291  0.33816563    -0.12300
C900        C  0.13081031  0.90842010  0.09267198    -0.10700
C901        C  0.15934737  0.91032405  0.08270348    -0.12300
C902        C  0.15936563  0.91038535  0.41891162    -0.10700
C903        C  0.13083857  0.90847154  0.40892416    -0.12300
C904        C  0.40789351  0.91777894  0.16343497    -0.10700
C905        C  0.40653763  0.90768453  0.13537148    -0.12300
C906        C  0.40655220  0.86577468  0.09439437    -0.10700
C907        C  0.41570839  0.83736135  0.09322767    -0.12300
C908        C  0.33711947  0.91032550  0.08270649    -0.10700
C909        C  0.36564917  0.90840602  0.09268306    -0.12300
C910        C  0.36564958  0.90842211  0.40890516    -0.10700
C911        C  0.33712284  0.91035263  0.41889316    -0.12300
C912        C  0.40790552  0.91778768  0.33815007    -0.10700
C913        C  0.40653968  0.90769050  0.36620823    -0.12300
C914        C  0.41573537  0.83738252  0.40836369    -0.10700
C915        C  0.40655665  0.86578775  0.40717978    -0.12300
N916        N  0.03696240  0.93652284  0.54111477    -0.03600
N917        N  0.05834356  0.91270196  0.54918465    -0.55700
N918        N  0.45954243  0.95960033  0.56415192    -0.03300
N919        N  0.43821815  0.95170200  0.58809042    -0.57800
N920        N  0.45950354  0.93650085  0.54111791    -0.02900
N921        N  0.43812643  0.91266879  0.54919232    -0.55700
N922        N  0.03691288  0.95961750  0.56415370    -0.02500
N923        N  0.05823266  0.95172382  0.58809316    -0.58200
C924        C  0.07188866  0.92251138  0.57844826     0.98600
C925        C  0.42457328  0.92247883  0.57845258     0.98400
N926        N  0.45948304  0.56309186  0.54113700    -0.03800
N927        N  0.43809247  0.58690687  0.54921127    -0.56300
N928        N  0.03690056  0.54001470  0.56415970    -0.01900
N929        N  0.05822770  0.54791105  0.58809636    -0.57500
N930        N  0.03693902  0.56311443  0.54113559    -0.03800
N931        N  0.05831808  0.58694460  0.54921512    -0.56600
N932        N  0.45953026  0.53999737  0.56416643    -0.01500
N933        N  0.43819805  0.54788469  0.58810348    -0.57600
Mn934      Mn  0.99822162  0.99980803  0.56446866     1.18400
C935        C  0.42453927  0.57709369  0.57846727     1.00700
C936        C  0.07187307  0.57713324  0.57846742     1.01300
N937        N  0.45950784  0.93650744  0.96046025    -0.03800
N938        N  0.43812758  0.91267826  0.95238082    -0.60100
N939        N  0.03691720  0.95962494  0.93743126    -0.02600
N940        N  0.05824955  0.95173829  0.91349431    -0.60800
N941        N  0.03696394  0.93652975  0.96046001    -0.03300
N942        N  0.05835448  0.91271487  0.95238533    -0.60400
N943        N  0.45954695  0.95960728  0.93743615    -0.02200
N944        N  0.43821912  0.95171198  0.91349974    -0.61100
Mn945      Mn  0.49823430  0.93614839  0.00078756     1.10700
C946        C  0.42457255  0.92249040  0.92312876     1.01900
C947        C  0.07190782  0.92252898  0.92312971     1.02000
N948        N  0.03694341  0.56312060  0.96047960    -0.03300
N949        N  0.05831963  0.58695353  0.95240572    -0.57300
N950        N  0.45953437  0.54000460  0.93744166    -0.02700
N951        N  0.43821444  0.54789915  0.91350240    -0.55400
N952        N  0.45948443  0.56309826  0.96048158    -0.04000
N953        N  0.43810296  0.58691914  0.95241271    -0.58300
N954        N  0.03690520  0.54002155  0.93744523    -0.03000
N955        N  0.05822909  0.54792117  0.91350679    -0.55500
Mn956      Mn  0.99821236  0.56347268  0.50080904     1.20200
Mn957      Mn  0.49822587  0.49981388  0.93712770     1.10100
Cl958      Cl  0.99822313  0.49981060  0.50079820    -0.83400
C959        C  0.07187292  0.57714466  0.92314522     0.98900
C960        C  0.42455779  0.57711104  0.92314875     0.98700
C961        C  0.40105119  0.90129311  0.90160730     0.00000
C962        C  0.40105159  0.90128207  0.59997146     0.00000
N963        N  0.29860092  0.91015204  0.50080518    -0.34100
N964        N  0.24824494  0.90863652  0.94915541    -0.54600
N965        N  0.19788711  0.91013542  0.50081133    -0.34100
N966        N  0.24823859  0.90857871  0.55246274    -0.54600
C967        C  0.31645143  0.90071856  0.97402939     0.29500
C968        C  0.31644844  0.90070073  0.52756947     0.29500
C969        C  0.18003626  0.90070679  0.97403500     0.29500
C970        C  0.18003364  0.90067819  0.52757454     0.29500
C971        C  0.27551108  0.91421497  0.93015789     0.38100
C972        C  0.22098142  0.91421822  0.93016243     0.38100
C973        C  0.27550336  0.91416051  0.57145977     0.38100
C974        C  0.22097272  0.91415118  0.57146275     0.38100
C975        C  0.34563326  0.88476003  0.98390755    -0.19400
C976        C  0.34563154  0.88474918  0.51767306    -0.19400
C977        C  0.15084907  0.88474249  0.98391093    -0.19400
C978        C  0.15084758  0.88472413  0.51767687    -0.19400
C979        C  0.26564185  0.92296620  0.89848403    -0.20400
C980        C  0.23085465  0.92296910  0.89848718    -0.20400
C981        C  0.26563130  0.92290232  0.60314062    -0.20400
C982        C  0.23084357  0.92289644  0.60314250    -0.20400
C983        C  0.30868811  0.90878984  0.94110146    -0.15800
C984        C  0.30868271  0.90875397  0.56050539    -0.15800
C985        C  0.18779319  0.90873729  0.56050947    -0.15800
C986        C  0.18780172  0.90879560  0.94111056    -0.15800
H987        H  0.36515222  0.87441244  0.96846127     0.17100
H988        H  0.36514881  0.87439217  0.53310784     0.17100
H989        H  0.13132728  0.87439995  0.96846251     0.17100
H990        H  0.13132446  0.87436529  0.53311151     0.17100
H991        H  0.28174871  0.92813701  0.87755362     0.15400
H992        H  0.21475006  0.92814157  0.87755946     0.15400
H993        H  0.28173692  0.92807688  0.62407082     0.15400
H994        H  0.21473733  0.92806544  0.62407443     0.15400
H995        H  0.27706249  0.92471674  0.50081496     0.28700
H996        H  0.21942740  0.92470578  0.50082166     0.28700
C997        C  0.40104545  0.59831266  0.90163264     0.00000
N998        N  0.40749778  0.99980502  0.80045116    -0.34100
N999        N  0.40594540  0.94820128  0.75079844    -0.54600
N1000       N  0.40746485  0.99979474  0.70115187    -0.34100
N1001       N  0.40589429  0.55139807  0.75080403    -0.54600
C1002       C  0.39812789  0.97304291  0.81810979     0.29500
C1003       C  0.39810629  0.52656195  0.81811173     0.29500
C1004       C  0.39808296  0.97302672  0.68349948     0.29500
C1005       C  0.39805976  0.52654539  0.68350165     0.29500
C1006       C  0.41180811  0.92928291  0.77762653     0.38100
C1007       C  0.41179794  0.92927849  0.72396236     0.38100
C1008       C  0.41174480  0.57032907  0.77763531     0.38100
C1009       C  0.41172745  0.57032266  0.72397152     0.38100
C1010       C  0.38227591  0.98292782  0.84704225    -0.19400
C1011       C  0.38226197  0.51666925  0.84704324    -0.19400
C1012       C  0.38220665  0.98290072  0.65458278    -0.19400
C1013       C  0.38219346  0.51664285  0.65458346    -0.19400
C1014       C  0.42103540  0.89774033  0.76790018    -0.20400
C1015       C  0.42103042  0.89773792  0.73367557    -0.20400
C1016       C  0.42094215  0.60188136  0.76791489    -0.20400
C1017       C  0.42093130  0.60187719  0.73369039    -0.20400
C1018       C  0.40622081  0.94013019  0.81030440    -0.15800
C1019       C  0.40617773  0.55948017  0.81031184    -0.15800
C1020       C  0.40613901  0.55946547  0.69129754    -0.15800
C1021       C  0.40619466  0.94011934  0.69129055    -0.15800
H1022       H  0.37200807  0.96750685  0.86638449     0.17100
H1023       H  0.37198174  0.53208601  0.86638616     0.17100
H1024       H  0.37192581  0.96747143  0.63524873     0.17100
H1025       H  0.37190117  0.53205391  0.63525009     0.17100
H1026       H  0.42655241  0.87689945  0.78373839     0.15400
H1027       H  0.42654195  0.87689459  0.71782900     0.15400
H1028       H  0.42644413  0.62273191  0.78375711     0.15400
H1029       H  0.42642304  0.62272387  0.71784769     0.15400
H1030       H  0.42202979  0.99981074  0.77906957     0.28700
H1031       H  0.42201575  0.99980714  0.72251890     0.28700
C1032       C  0.40100626  0.59828282  0.59998239     0.00000
N1033       N  0.29855815  0.58948202  0.50078498    -0.34100
N1034       N  0.24820622  0.59104875  0.94913324    -0.54600
N1035       N  0.19784369  0.58948159  0.50079115    -0.34100
N1036       N  0.24819989  0.59098774  0.55244113    -0.54600
C1037       C  0.31641310  0.59893753  0.97402191     0.29500
C1038       C  0.31641064  0.59890751  0.52756157     0.29500
C1039       C  0.17999521  0.59893167  0.97402706     0.29500
C1040       C  0.17999216  0.59891252  0.52756724     0.29500
C1041       C  0.27547121  0.58547860  0.93013129     0.38100
C1042       C  0.22094069  0.58547588  0.93013468     0.38100
C1043       C  0.27546262  0.58540719  0.57143567     0.38100
C1044       C  0.22093292  0.58541706  0.57143986     0.38100
C1045       C  0.34560172  0.61488656  0.98392011    -0.19400
C1046       C  0.34560033  0.61486733  0.51768574    -0.19400
C1047       C  0.15081023  0.61487975  0.98392388    -0.19400
C1048       C  0.15080851  0.61486805  0.51768934    -0.19400
C1049       C  0.26559900  0.57674492  0.89844873    -0.20400
C1050       C  0.23081141  0.57674318  0.89845089    -0.20400
C1051       C  0.26558797  0.57666565  0.60311310    -0.20400
C1052       C  0.23080088  0.57667272  0.60311601    -0.20400
C1053       C  0.30865177  0.59088388  0.94108591    -0.15800
C1054       C  0.30864343  0.59082263  0.56048677    -0.15800
C1055       C  0.18775612  0.59084170  0.56049527    -0.15800
C1056       C  0.18776162  0.59088048  0.94109070    -0.15800
H1057       H  0.36512596  0.62524411  0.96848610     0.17100
H1058       H  0.36512334  0.62520785  0.53313387     0.17100
H1059       H  0.13129174  0.62523497  0.96848940     0.17100
H1060       H  0.13128821  0.62521310  0.53313566     0.17100
H1061       H  0.28170431  0.57158088  0.87751489     0.15400
H1062       H  0.21470500  0.57157752  0.87751904     0.15400
H1063       H  0.28169164  0.57149682  0.62404239     0.15400
H1064       H  0.21469327  0.57150952  0.62404777     0.15400
H1065       H  0.27701502  0.57491574  0.50077428     0.28700
H1066       H  0.21938345  0.57491903  0.50078094     0.28700
C1067       C  0.09543921  0.90134029  0.90161325     0.00000
N1068       N  0.49824867  0.79898223  0.90689372    -0.34100
N1069       N  0.44563901  0.74981485  0.90556418    -0.54600
N1070       N  0.49824477  0.70067660  0.90688745    -0.34100
N1071       N  0.05085629  0.74983982  0.90555428    -0.54600
C1072       C  0.47105628  0.81620786  0.89690795     0.29500
C1073       C  0.02543970  0.81621995  0.89690250     0.29500
C1074       C  0.47105435  0.68343740  0.89689618     0.29500
C1075       C  0.02543591  0.68345187  0.89688864     0.29500
C1076       C  0.42673743  0.77661101  0.91222176     0.38100
C1077       C  0.42673768  0.72301381  0.91222329     0.38100
C1078       C  0.06975963  0.77664240  0.91220784     0.38100
C1079       C  0.06975532  0.72304513  0.91221092     0.38100
C1080       C  0.48106794  0.84426531  0.87985631    -0.19400
C1081       C  0.01542601  0.84427307  0.87985296    -0.19400
C1082       C  0.48106627  0.65538533  0.87983076    -0.19400
C1083       C  0.01542460  0.65539500  0.87982509    -0.19400
C1084       C  0.39512964  0.76692564  0.92287426    -0.20400
C1085       C  0.39513019  0.73269066  0.92287620    -0.20400
C1086       C  0.10136720  0.76696787  0.92285520    -0.20400
C1087       C  0.10136391  0.73273257  0.92285859    -0.20400
C1088       C  0.43776875  0.80909318  0.90600171    -0.15800
C1089       C  0.05872760  0.80912024  0.90599045    -0.15800
C1090       C  0.05871968  0.69056183  0.90599212    -0.15800
C1091       C  0.43777040  0.69053389  0.90600328    -0.15800
H1092       H  0.46530782  0.86310952  0.86899430     0.17100
H1093       H  0.03118487  0.86312447  0.86898832     0.17100
H1094       H  0.46530588  0.63653267  0.86896463     0.17100
H1095       H  0.03118545  0.63655103  0.86895322     0.17100
H1096       H  0.37424617  0.78277487  0.92933326     0.15400
H1097       H  0.37424738  0.71683574  0.92933631     0.15400
H1098       H  0.12225190  0.78282414  0.92930987     0.15400
H1099       H  0.12224587  0.71688450  0.92931539     0.15400
H1100       H  0.49824925  0.77845030  0.92237757     0.28700
H1101       H  0.49824503  0.72120594  0.92238383     0.28700
C1102       C  0.09539263  0.59834346  0.90162639     0.00000
N1103       N  0.08894845  0.99982126  0.70114772    -0.34100
N1104       N  0.09050250  0.55142538  0.75079893    -0.54600
N1105       N  0.08898447  0.99983143  0.80044406    -0.34100
N1106       N  0.09055167  0.94822757  0.75079336    -0.54600
C1107       C  0.09832229  0.52658314  0.68349077     0.29500
C1108       C  0.09834402  0.97306428  0.68348927     0.29500
C1109       C  0.09836831  0.52659942  0.81809561     0.29500
C1110       C  0.09839192  0.97308063  0.81809297     0.29500
C1111       C  0.08463727  0.57034300  0.72397095     0.38100
C1112       C  0.08464862  0.57034757  0.77763502     0.38100
C1113       C  0.08469745  0.92929781  0.72396228     0.38100
C1114       C  0.08471611  0.92930402  0.77762577     0.38100
C1115       C  0.11418146  0.51669827  0.65456225    -0.19400
C1116       C  0.11419565  0.98295667  0.65456159    -0.19400
C1117       C  0.11424883  0.51672539  0.84700998    -0.19400
C1118       C  0.11426247  0.98298297  0.84700897    -0.19400
C1119       C  0.07540697  0.60188476  0.73369725    -0.20400
C1120       C  0.07541280  0.60188730  0.76792199    -0.20400
C1121       C  0.07549440  0.89774699  0.73368250    -0.20400
C1122       C  0.07550615  0.89775099  0.76790718    -0.20400
C1123       C  0.09022573  0.55949543  0.69129354    -0.15800
C1124       C  0.09026834  0.94014665  0.69128668    -0.15800
C1125       C  0.09030901  0.94016096  0.81029884    -0.15800
C1126       C  0.09025357  0.55950655  0.81030639    -0.15800
H1127       H  0.12445331  0.53211965  0.63522235     0.17100
H1128       H  0.12448003  0.96753935  0.63522117     0.17100
H1129       H  0.12453144  0.53215505  0.86634287     0.17100
H1130       H  0.12455669  0.96757146  0.86634107     0.17100
H1131       H  0.06988755  0.62272496  0.71785895     0.15400
H1132       H  0.06989957  0.62273010  0.78376870     0.15400
H1133       H  0.06998853  0.87689751  0.71784016     0.15400
H1134       H  0.07001128  0.87690520  0.78375004     0.15400
H1135       H  0.07441094  0.99981568  0.72252580     0.28700
H1136       H  0.07443024  0.99981916  0.77907918     0.28700
C1137       C  0.09539316  0.59833160  0.59998917     0.00000
C1138       C  0.09540008  0.90131119  0.59996608     0.00000
N1139       N  0.49819734  0.79894755  0.59472107    -0.34100
N1140       N  0.44558515  0.74978394  0.59604626    -0.54600
N1141       N  0.49819342  0.70064159  0.59469321    -0.34100
N1142       N  0.05080285  0.74980894  0.59603156    -0.54600
C1143       C  0.47100619  0.81617064  0.60472260     0.29500
C1144       C  0.02538786  0.81618510  0.60471479     0.29500
C1145       C  0.47100250  0.68340166  0.60468122     0.29500
C1146       C  0.02538584  0.68341378  0.60467556     0.29500
C1147       C  0.42668648  0.77658001  0.58939394     0.38100
C1148       C  0.42668167  0.72298267  0.58938729     0.38100
C1149       C  0.06970515  0.77661131  0.58938079     0.38100
C1150       C  0.06970587  0.72301411  0.58937261     0.38100
C1151       C  0.48101744  0.84422487  0.62179054    -0.19400
C1152       C  0.01537607  0.84423457  0.62178470    -0.19400
C1153       C  0.48101641  0.65534509  0.62172477    -0.19400
C1154       C  0.01537400  0.65535282  0.62172128    -0.19400
C1155       C  0.39507796  0.76689472  0.57874404    -0.20400
C1156       C  0.39507428  0.73265941  0.57874146    -0.20400
C1157       C  0.10131471  0.76693662  0.57873165    -0.20400
C1158       C  0.10131562  0.73270167  0.57872763    -0.20400
C1159       C  0.43772275  0.80906241  0.59561654    -0.15800
C1160       C  0.05867171  0.80909004  0.59560572    -0.15800
C1161       C  0.05867428  0.69053079  0.59558643    -0.15800
C1162       C  0.43771393  0.69050339  0.59559724    -0.15800
H1163       H  0.46525614  0.86306718  0.63266479     0.17100
H1164       H  0.03113691  0.86308568  0.63265311     0.17100
H1165       H  0.46525813  0.63649187  0.63258678     0.17100
H1166       H  0.03113357  0.63650668  0.63258057     0.17100
H1167       H  0.37419647  0.78274414  0.57228907     0.15400
H1168       H  0.37418982  0.71680446  0.57228277     0.15400
H1169       H  0.12219898  0.78279279  0.57227909     0.15400
H1170       H  0.12220070  0.71685380  0.57227037     0.15400
H1171       H  0.49819681  0.77842097  0.57922108     0.28700
H1172       H  0.49819256  0.72117738  0.57921444     0.28700
C1173       C  0.08986947  0.86580504  0.59439404    -0.10700
C1174       C  0.08069293  0.83739435  0.59322471    -0.12300
C1175       C  0.08988772  0.63383708  0.59441554    -0.10700
C1176       C  0.08070969  0.66224251  0.59322822    -0.12300
C1177       C  0.08992260  0.90771519  0.63536705    -0.10700
C1178       C  0.08857255  0.91780537  0.66343209    -0.12300
C1179       C  0.08853932  0.58183640  0.66344659    -0.10700
C1180       C  0.08990458  0.59193368  0.63538833    -0.12300
C1181       C  0.08990668  0.59194115  0.86622618    -0.10700
C1182       C  0.08855249  0.58184591  0.83816283    -0.12300
C1183       C  0.08073590  0.66226398  0.90837742    -0.10700
C1184       C  0.08989156  0.63385059  0.90720605    -0.12300
C1185       C  0.08997344  0.90773890  0.86621293    -0.10700
C1186       C  0.08862325  0.91782783  0.83815182    -0.12300
C1187       C  0.08992793  0.86583220  0.90717780    -0.10700
C1188       C  0.08075622  0.83742088  0.90835562    -0.12300
C1189       C  0.15932144  0.58927643  0.58270326    -0.10700
C1190       C  0.13079476  0.59120392  0.59269161    -0.12300
C1191       C  0.15932489  0.58930588  0.91889028    -0.10700
C1192       C  0.13079514  0.59122143  0.90891384    -0.12300
C1193       C  0.41568420  0.66220313  0.59323259    -0.10700
C1194       C  0.40651423  0.63379118  0.59441368    -0.12300
C1195       C  0.36560676  0.59114831  0.59267330    -0.10700
C1196       C  0.33707926  0.58923340  0.58268662    -0.12300
C1197       C  0.40782414  0.58179957  0.66344493    -0.10700
C1198       C  0.40647342  0.59188783  0.63538344    -0.12300
C1199       C  0.40657328  0.63381877  0.90721023    -0.10700
C1200       C  0.41574825  0.66222998  0.90838401    -0.12300
C1201       C  0.36563512  0.59120115  0.90892430    -0.10700
C1202       C  0.33709741  0.58929708  0.91889133    -0.12300
C1203       C  0.40652410  0.59191299  0.86623085    -0.10700
C1204       C  0.40787362  0.58182287  0.83816563    -0.12300
C1205       C  0.13081026  0.90842013  0.59267198    -0.10700
C1206       C  0.15934733  0.91032412  0.58270350    -0.12300
C1207       C  0.15936565  0.91038541  0.91891163    -0.10700
C1208       C  0.13083861  0.90847158  0.90892413    -0.12300
C1209       C  0.40789351  0.91777898  0.66343495    -0.10700
C1210       C  0.40653768  0.90768454  0.63537147    -0.12300
C1211       C  0.40655223  0.86577467  0.59439437    -0.10700
C1212       C  0.41570839  0.83736132  0.59322768    -0.12300
C1213       C  0.33711945  0.91032560  0.58270649    -0.10700
C1214       C  0.36564914  0.90840601  0.59268309    -0.12300
C1215       C  0.36564960  0.90842204  0.90890520    -0.10700
C1216       C  0.33712285  0.91035262  0.91889317    -0.12300
C1217       C  0.40790563  0.91778772  0.83815008    -0.10700
C1218       C  0.40653970  0.90769054  0.86620824    -0.12300
C1219       C  0.41573537  0.83738247  0.90836368    -0.10700
C1220       C  0.40655671  0.86578771  0.90717975    -0.12300
N1221       N  0.53696249  0.43652292  0.04111474    -0.03600
N1222       N  0.55834366  0.41270206  0.04918463    -0.55700
N1223       N  0.95954244  0.45960036  0.06415197    -0.03300
N1224       N  0.93821822  0.45170196  0.08809050    -0.57800
N1225       N  0.95950354  0.43650091  0.04111793    -0.02900
N1226       N  0.93812646  0.41266883  0.04919234    -0.55700
N1227       N  0.53691291  0.45961756  0.06415371    -0.02500
N1228       N  0.55823262  0.45172385  0.08809321    -0.58200
C1229       C  0.57188865  0.42251142  0.07844830     0.98600
C1230       C  0.92457337  0.42247879  0.07845264     0.98400
N1231       N  0.95948311  0.06309187  0.04113704    -0.03800
N1232       N  0.93809256  0.08690690  0.04921130    -0.56300
N1233       N  0.53690061  0.04001467  0.06415968    -0.01900
N1234       N  0.55822780  0.04791100  0.08809631    -0.57500
N1235       N  0.53693901  0.06311444  0.04113561    -0.03800
N1236       N  0.55831802  0.08694464  0.04921518    -0.56600
N1237       N  0.95953027  0.03999736  0.06416644    -0.01500
N1238       N  0.93819802  0.04788466  0.08810344    -0.57600
Mn1239     Mn  0.49822163  0.49980804  0.06446867     1.18400
C1240       C  0.92453928  0.07709368  0.07846726     1.00700
C1241       C  0.57187308  0.07713324  0.07846743     1.01300
N1242       N  0.95950785  0.43650747  0.46046021    -0.03800
N1243       N  0.93812758  0.41267830  0.45238080    -0.60100
N1244       N  0.53691715  0.45962489  0.43743125    -0.02600
N1245       N  0.55824946  0.45173822  0.41349429    -0.60800
N1246       N  0.53696392  0.43652973  0.46046003    -0.03300
N1247       N  0.55835446  0.41271484  0.45238535    -0.60400
N1248       N  0.95954692  0.45960732  0.43743614    -0.02200
N1249       N  0.93821903  0.45171206  0.41349977    -0.61100
Mn1250     Mn  0.99823432  0.43614841  0.50078754     1.10700
C1251       C  0.92457248  0.42249046  0.42312878     1.01900
C1252       C  0.57190775  0.42252893  0.42312970     1.02000
N1253       N  0.53694347  0.06312062  0.46047961    -0.03300
N1254       N  0.55831965  0.08695358  0.45240570    -0.57300
N1255       N  0.95953436  0.04000468  0.43744165    -0.02700
N1256       N  0.93821438  0.04789920  0.41350242    -0.55400
N1257       N  0.95948444  0.06309835  0.46048156    -0.04000
N1258       N  0.93810295  0.08691922  0.45241271    -0.58300
N1259       N  0.53690529  0.04002157  0.43744526    -0.03000
N1260       N  0.55822914  0.04792121  0.41350679    -0.55500
Mn1261     Mn  0.49821238  0.06347264  0.00080905     1.20200
Mn1262     Mn  0.99822585  0.99981392  0.43712770     1.10100
Cl1263     Cl  0.49822313  0.99981056  0.00079820    -0.83400
C1264       C  0.57187295  0.07714471  0.42314521     0.98900
C1265       C  0.92455772  0.07711109  0.42314878     0.98700
C1266       C  0.90105116  0.40129313  0.40160730     0.00000
C1267       C  0.90105162  0.40128201  0.09997147     0.00000
N1268       N  0.79860089  0.41015208  0.00080518    -0.34100
N1269       N  0.74824496  0.40863647  0.44915540    -0.54600
N1270       N  0.69788709  0.41013544  0.00081134    -0.34100
N1271       N  0.74823858  0.40857874  0.05246276    -0.54600
C1272       C  0.81645142  0.40071850  0.47402940     0.29500
C1273       C  0.81644842  0.40070075  0.02756947     0.29500
C1274       C  0.68003627  0.40070670  0.47403500     0.29500
C1275       C  0.68003362  0.40067815  0.02757455     0.29500
C1276       C  0.77551111  0.41421496  0.43015791     0.38100
C1277       C  0.72098145  0.41421817  0.43016240     0.38100
C1278       C  0.77550335  0.41416057  0.07145976     0.38100
C1279       C  0.72097271  0.41415116  0.07146278     0.38100
C1280       C  0.84563328  0.38476008  0.48390759    -0.19400
C1281       C  0.84563154  0.38474922  0.01767306    -0.19400
C1282       C  0.65084908  0.38474241  0.48391096    -0.19400
C1283       C  0.65084755  0.38472410  0.01767687    -0.19400
C1284       C  0.76564191  0.42296623  0.39848405    -0.20400
C1285       C  0.73085471  0.42296908  0.39848716    -0.20400
C1286       C  0.76563130  0.42290242  0.10314061    -0.20400
C1287       C  0.73084356  0.42289649  0.10314252    -0.20400
C1288       C  0.80868812  0.40878975  0.44110147    -0.15800
C1289       C  0.80868270  0.40875395  0.06050540    -0.15800
C1290       C  0.68779318  0.40873719  0.06050950    -0.15800
C1291       C  0.68780174  0.40879548  0.44111053    -0.15800
H1292       H  0.86515229  0.37441258  0.46846133     0.17100
H1293       H  0.86514882  0.37439224  0.03310786     0.17100
H1294       H  0.63132728  0.37439986  0.46846257     0.17100
H1295       H  0.63132440  0.37436527  0.03311150     0.17100
H1296       H  0.78174879  0.42813705  0.37755366     0.15400
H1297       H  0.71475016  0.42814148  0.37755939     0.15400
H1298       H  0.78173698  0.42807697  0.12407078     0.15400
H1299       H  0.71473731  0.42806551  0.12407445     0.15400
H1300       H  0.77706247  0.42471676  0.00081495     0.28700
H1301       H  0.71942736  0.42470586  0.00082168     0.28700
C1302       C  0.90104542  0.09831269  0.40163263     0.00000
N1303       N  0.90749772  0.49980498  0.30045113    -0.34100
N1304       N  0.90594538  0.44820128  0.25079844    -0.54600
N1305       N  0.90746495  0.49979474  0.20115186    -0.34100
N1306       N  0.90589433  0.05139802  0.25080405    -0.54600
C1307       C  0.89812781  0.47304289  0.31810978     0.29500
C1308       C  0.89810629  0.02656199  0.31811174     0.29500
C1309       C  0.89808309  0.47302671  0.18349946     0.29500
C1310       C  0.89805976  0.02654539  0.18350165     0.29500
C1311       C  0.91180802  0.42928289  0.27762654     0.38100
C1312       C  0.91179798  0.42927850  0.22396237     0.38100
C1313       C  0.91174476  0.07032907  0.27763531     0.38100
C1314       C  0.91172746  0.07032261  0.22397153     0.38100
C1315       C  0.88227590  0.48292784  0.34704228    -0.19400
C1316       C  0.88226203  0.01666929  0.34704326    -0.19400
C1317       C  0.88220678  0.48290071  0.15458277    -0.19400
C1318       C  0.88219353  0.01664288  0.15458341    -0.19400
C1319       C  0.92103533  0.39774030  0.26790019    -0.20400
C1320       C  0.92103041  0.39773792  0.23367557    -0.20400
C1321       C  0.92094205  0.10188135  0.26791484    -0.20400
C1322       C  0.92093126  0.10187715  0.23369035    -0.20400
C1323       C  0.90622069  0.44013016  0.31030441    -0.15800
C1324       C  0.90617772  0.05948021  0.31031184    -0.15800
C1325       C  0.90613900  0.05946546  0.19129756    -0.15800
C1326       C  0.90619474  0.44011932  0.19129055    -0.15800
H1327       H  0.87200806  0.46750688  0.36638452     0.17100
H1328       H  0.87198184  0.03208607  0.36638619     0.17100
H1329       H  0.87192597  0.46747140  0.13524873     0.17100
H1330       H  0.87190124  0.03205395  0.13525005     0.17100
H1331       H  0.92655229  0.37689940  0.28373840     0.15400
H1332       H  0.92654188  0.37689460  0.21782896     0.15400
H1333       H  0.92644402  0.12273193  0.28375701     0.15400
H1334       H  0.92642302  0.12272379  0.21784763     0.15400
H1335       H  0.92202968  0.49981066  0.27906952     0.28700
H1336       H  0.92201586  0.49980713  0.22251885     0.28700
C1337       C  0.90100625  0.09828279  0.09998237     0.00000
N1338       N  0.79855811  0.08948207  0.00078497    -0.34100
N1339       N  0.74820624  0.09104887  0.44913323    -0.54600
N1340       N  0.69784367  0.08948160  0.00079117    -0.34100
N1341       N  0.74819986  0.09098774  0.05244113    -0.54600
C1342       C  0.81641314  0.09893754  0.47402191     0.29500
C1343       C  0.81641064  0.09890756  0.02756155     0.29500
C1344       C  0.67999520  0.09893173  0.47402704     0.29500
C1345       C  0.67999211  0.09891248  0.02756725     0.29500
C1346       C  0.77547123  0.08547865  0.43013131     0.38100
C1347       C  0.72094072  0.08547593  0.43013467     0.38100
C1348       C  0.77546262  0.08540720  0.07143565     0.38100
C1349       C  0.72093290  0.08541702  0.07143986     0.38100
C1350       C  0.84560178  0.11488652  0.48392014    -0.19400
C1351       C  0.84560039  0.11486732  0.01768573    -0.19400
C1352       C  0.65081022  0.11487980  0.48392389    -0.19400
C1353       C  0.65080842  0.11486796  0.01768933    -0.19400
C1354       C  0.76559905  0.07674483  0.39844878    -0.20400
C1355       C  0.73081146  0.07674311  0.39845091    -0.20400
C1356       C  0.76558800  0.07666563  0.10311307    -0.20400
C1357       C  0.73080091  0.07667265  0.10311599    -0.20400
C1358       C  0.80865178  0.09088396  0.44108591    -0.15800
C1359       C  0.80864342  0.09082270  0.06048674    -0.15800
C1360       C  0.68775609  0.09084171  0.06049528    -0.15800
C1361       C  0.68776166  0.09088058  0.44109068    -0.15800
H1362       H  0.86512612  0.12524394  0.46848616     0.17100
H1363       H  0.86512342  0.12520782  0.03313386     0.17100
H1364       H  0.63129172  0.12523506  0.46848944     0.17100
H1365       H  0.63128811  0.12521302  0.03313565     0.17100
H1366       H  0.78170438  0.07158072  0.37751496     0.15400
H1367       H  0.71470509  0.07157740  0.37751904     0.15400
H1368       H  0.78169166  0.07149688  0.12404239     0.15400
H1369       H  0.71469336  0.07150942  0.12404778     0.15400
H1370       H  0.77701494  0.07491588  0.00077428     0.28700
H1371       H  0.71938348  0.07491910  0.00078096     0.28700
C1372       C  0.59543916  0.40134029  0.40161324     0.00000
N1373       N  0.99824867  0.29898230  0.40689372    -0.34100
N1374       N  0.94563906  0.24981485  0.40556420    -0.54600
N1375       N  0.99824478  0.20067661  0.40688745    -0.34100
N1376       N  0.55085624  0.24983980  0.40555427    -0.54600
C1377       C  0.97105629  0.31620795  0.39690795     0.29500
C1378       C  0.52543968  0.31622000  0.39690249     0.29500
C1379       C  0.97105434  0.18343740  0.39689617     0.29500
C1380       C  0.52543588  0.18345183  0.39688864     0.29500
C1381       C  0.92673749  0.27661102  0.41222178     0.38100
C1382       C  0.92673770  0.22301381  0.41222328     0.38100
C1383       C  0.56975958  0.27664239  0.41220783     0.38100
C1384       C  0.56975528  0.22304511  0.41221091     0.38100
C1385       C  0.98106795  0.34426542  0.37985631    -0.19400
C1386       C  0.51542599  0.34427315  0.37985297    -0.19400
C1387       C  0.98106622  0.15538534  0.37983075    -0.19400
C1388       C  0.51542453  0.15539496  0.37982511    -0.19400
C1389       C  0.89512970  0.26692567  0.42287427    -0.20400
C1390       C  0.89513021  0.23269070  0.42287618    -0.20400
C1391       C  0.60136716  0.26696786  0.42285521    -0.20400
C1392       C  0.60136386  0.23273255  0.42285860    -0.20400
C1393       C  0.93776876  0.30909321  0.40600169    -0.15800
C1394       C  0.55872758  0.30912025  0.40599041    -0.15800
C1395       C  0.55871965  0.19056180  0.40599210    -0.15800
C1396       C  0.93777040  0.19053388  0.40600330    -0.15800
H1397       H  0.96530785  0.36310966  0.36899429     0.17100
H1398       H  0.53118483  0.36312456  0.36898832     0.17100
H1399       H  0.96530580  0.13653270  0.36896463     0.17100
H1400       H  0.53118533  0.13655095  0.36895326     0.17100
H1401       H  0.87424625  0.28277492  0.42933326     0.15400
H1402       H  0.87424737  0.21683582  0.42933626     0.15400
H1403       H  0.62225188  0.28282413  0.42930988     0.15400
H1404       H  0.62224582  0.21688448  0.42931539     0.15400
H1405       H  0.99824927  0.27845038  0.42237757     0.28700
H1406       H  0.99824509  0.22120592  0.42238381     0.28700
C1407       C  0.59539268  0.09834348  0.40162638     0.00000
N1408       N  0.58894842  0.49982118  0.20114771    -0.34100
N1409       N  0.59050244  0.05142534  0.25079894    -0.54600
N1410       N  0.58898446  0.49983143  0.30044406    -0.34100
N1411       N  0.59055166  0.44822757  0.25079333    -0.54600
C1412       C  0.59832223  0.02658312  0.18349077     0.29500
C1413       C  0.59834402  0.47306421  0.18348924     0.29500
C1414       C  0.59836831  0.02659941  0.31809560     0.29500
C1415       C  0.59839192  0.47308064  0.31809298     0.29500
C1416       C  0.58463724  0.07034296  0.22397095     0.38100
C1417       C  0.58464869  0.07034758  0.27763502     0.38100
C1418       C  0.58469739  0.42929781  0.22396227     0.38100
C1419       C  0.58471615  0.42930404  0.27762577     0.38100
C1420       C  0.61418142  0.01669827  0.15456225    -0.19400
C1421       C  0.61419564  0.48295663  0.15456155    -0.19400
C1422       C  0.61424882  0.01672538  0.34700999    -0.19400
C1423       C  0.61426244  0.48298298  0.34700901    -0.19400
C1424       C  0.57540709  0.10188475  0.23369725    -0.20400
C1425       C  0.57541297  0.10188733  0.26792199    -0.20400
C1426       C  0.57549435  0.39774701  0.23368255    -0.20400
C1427       C  0.57550614  0.39775102  0.26790722    -0.20400
C1428       C  0.59022568  0.05949539  0.19129354    -0.15800
C1429       C  0.59026836  0.44014658  0.19128667    -0.15800
C1430       C  0.59030910  0.44016098  0.31029883    -0.15800
C1431       C  0.59025361  0.05950655  0.31030639    -0.15800
H1432       H  0.62445326  0.03211967  0.13522236     0.17100
H1433       H  0.62448002  0.46753936  0.13522108     0.17100
H1434       H  0.62453140  0.03215503  0.36634291     0.17100
H1435       H  0.62455665  0.46757149  0.36634113     0.17100
H1436       H  0.56988765  0.12272493  0.21785896     0.15400
H1437       H  0.56989972  0.12273014  0.28376869     0.15400
H1438       H  0.56998854  0.37689748  0.21784025     0.15400
H1439       H  0.57001131  0.37690523  0.28375009     0.15400
H1440       H  0.57441090  0.49981561  0.22252578     0.28700
H1441       H  0.57443022  0.49981914  0.27907918     0.28700
C1442       C  0.59539315  0.09833163  0.09998918     0.00000
C1443       C  0.59540006  0.40131120  0.09996609     0.00000
N1444       N  0.99819730  0.29894760  0.09472106    -0.34100
N1445       N  0.94558513  0.24978392  0.09604628    -0.54600
N1446       N  0.99819344  0.20064157  0.09469323    -0.34100
N1447       N  0.55080282  0.24980896  0.09603154    -0.54600
C1448       C  0.97100614  0.31617068  0.10472259     0.29500
C1449       C  0.52538791  0.31618515  0.10471475     0.29500
C1450       C  0.97100251  0.18340161  0.10468121     0.29500
C1451       C  0.52538582  0.18341375  0.10467555     0.29500
C1452       C  0.92668646  0.27657999  0.08939394     0.38100
C1453       C  0.92668165  0.22298266  0.08938731     0.38100
C1454       C  0.56970515  0.27661132  0.08938078     0.38100
C1455       C  0.56970583  0.22301411  0.08937260     0.38100
C1456       C  0.98101738  0.34422494  0.12179052    -0.19400
C1457       C  0.51537612  0.34423460  0.12178466    -0.19400
C1458       C  0.98101646  0.15534502  0.12172472    -0.19400
C1459       C  0.51537398  0.15535277  0.12172123    -0.19400
C1460       C  0.89507795  0.26689473  0.07874402    -0.20400
C1461       C  0.89507426  0.23265943  0.07874147    -0.20400
C1462       C  0.60131471  0.26693659  0.07873167    -0.20400
C1463       C  0.60131559  0.23270164  0.07872763    -0.20400
C1464       C  0.93772270  0.30906239  0.09561657    -0.15800
C1465       C  0.55867175  0.30909007  0.09560570    -0.15800
C1466       C  0.55867423  0.19053079  0.09558644    -0.15800
C1467       C  0.93771390  0.19050337  0.09559727    -0.15800
H1468       H  0.96525607  0.36306723  0.13266479     0.17100
H1469       H  0.53113698  0.36308568  0.13265310     0.17100
H1470       H  0.96525824  0.13649177  0.13258677     0.17100
H1471       H  0.53113352  0.13650662  0.13258055     0.17100
H1472       H  0.87419647  0.28274417  0.07228903     0.15400
H1473       H  0.87418978  0.21680450  0.07228278     0.15400
H1474       H  0.62219899  0.28279275  0.07227914     0.15400
H1475       H  0.62220067  0.21685375  0.07227036     0.15400
H1476       H  0.99819678  0.27842102  0.07922110     0.28700
H1477       H  0.99819259  0.22117739  0.07921453     0.28700
C1478       C  0.58986953  0.36580505  0.09439400    -0.10700
C1479       C  0.58069300  0.33739435  0.09322470    -0.12300
C1480       C  0.58988765  0.13383710  0.09441555    -0.10700
C1481       C  0.58070964  0.16224252  0.09322822    -0.12300
C1482       C  0.58992259  0.40771511  0.13536707    -0.10700
C1483       C  0.58857262  0.41780528  0.16343211    -0.12300
C1484       C  0.58853942  0.08183640  0.16344660    -0.10700
C1485       C  0.58990466  0.09193369  0.13538834    -0.12300
C1486       C  0.58990682  0.09194113  0.36622617    -0.10700
C1487       C  0.58855262  0.08184591  0.33816282    -0.12300
C1488       C  0.58073587  0.16226396  0.40837741    -0.10700
C1489       C  0.58989156  0.13385059  0.40720601    -0.12300
C1490       C  0.58997343  0.40773895  0.36621293    -0.10700
C1491       C  0.58862334  0.41782788  0.33815181    -0.12300
C1492       C  0.58992789  0.36583219  0.40717777    -0.10700
C1493       C  0.58075621  0.33742087  0.40835561    -0.12300
C1494       C  0.65932142  0.08927650  0.08270328    -0.10700
C1495       C  0.63079473  0.09120399  0.09269159    -0.12300
C1496       C  0.65932494  0.08930598  0.41889027    -0.10700
C1497       C  0.63079519  0.09122152  0.40891386    -0.12300
C1498       C  0.91568414  0.16220313  0.09323263    -0.10700
C1499       C  0.90651415  0.13379117  0.09441369    -0.12300
C1500       C  0.86560676  0.09114824  0.09267326    -0.10700
C1501       C  0.83707927  0.08923340  0.08268655    -0.12300
C1502       C  0.90782419  0.08179955  0.16344494    -0.10700
C1503       C  0.90647342  0.09188778  0.13538343    -0.12300
C1504       C  0.90657322  0.13381879  0.40721024    -0.10700
C1505       C  0.91574824  0.16222997  0.40838402    -0.12300
C1506       C  0.86563507  0.09120119  0.40892424    -0.10700
C1507       C  0.83709738  0.08929717  0.41889130    -0.12300
C1508       C  0.90652418  0.09191304  0.36623086    -0.10700
C1509       C  0.90787372  0.08182293  0.33816563    -0.12300
C1510       C  0.63081022  0.40842017  0.09267199    -0.10700
C1511       C  0.65934730  0.41032405  0.08270351    -0.12300
C1512       C  0.65936563  0.41038534  0.41891163    -0.10700
C1513       C  0.63083857  0.40847159  0.40892415    -0.12300
C1514       C  0.90789356  0.41777891  0.16343496    -0.10700
C1515       C  0.90653770  0.40768443  0.13537150    -0.12300
C1516       C  0.90655217  0.36577460  0.09439434    -0.10700
C1517       C  0.91570830  0.33736124  0.09322768    -0.12300
C1518       C  0.83711948  0.41032553  0.08270649    -0.10700
C1519       C  0.86564918  0.40840600  0.09268307    -0.12300
C1520       C  0.86564957  0.40842207  0.40890514    -0.10700
C1521       C  0.83712284  0.41035255  0.41889316    -0.12300
C1522       C  0.90790560  0.41778769  0.33815008    -0.10700
C1523       C  0.90653974  0.40769051  0.36620824    -0.12300
C1524       C  0.91573535  0.33738249  0.40836367    -0.10700
C1525       C  0.90655665  0.36578772  0.40717978    -0.12300
N1526       N  0.53696245  0.43652286  0.54111477    -0.03600
N1527       N  0.55834364  0.41270201  0.54918464    -0.55700
N1528       N  0.95954239  0.45960037  0.56415190    -0.03300
N1529       N  0.93821816  0.45170201  0.58809043    -0.57800
N1530       N  0.95950351  0.43650090  0.54111789    -0.02900
N1531       N  0.93812641  0.41266883  0.54919231    -0.55700
N1532       N  0.53691291  0.45961751  0.56415372    -0.02500
N1533       N  0.55823269  0.45172384  0.58809318    -0.58200
C1534       C  0.57188873  0.42251141  0.57844827     0.98600
C1535       C  0.92457330  0.42247884  0.57845260     0.98400
N1536       N  0.95948306  0.06309182  0.54113702    -0.03800
N1537       N  0.93809254  0.08690687  0.54921127    -0.56300
N1538       N  0.53690064  0.04001469  0.56415970    -0.01900
N1539       N  0.55822779  0.04791107  0.58809635    -0.57500
N1540       N  0.53693904  0.06311444  0.54113561    -0.03800
N1541       N  0.55831805  0.08694465  0.54921515    -0.56600
N1542       N  0.95953022  0.03999733  0.56416644    -0.01500
N1543       N  0.93819802  0.04788468  0.58810347    -0.57600
Mn1544     Mn  0.49822167  0.49980804  0.56446866     1.18400
C1545       C  0.92453929  0.07709370  0.57846726     1.00700
C1546       C  0.57187309  0.07713329  0.57846742     1.01300
N1547       N  0.95950785  0.43650742  0.96046025    -0.03800
N1548       N  0.93812753  0.41267828  0.95238083    -0.60100
N1549       N  0.53691709  0.45962488  0.93743123    -0.02600
N1550       N  0.55824936  0.45173818  0.91349424    -0.60800
N1551       N  0.53696391  0.43652975  0.96046004    -0.03300
N1552       N  0.55835446  0.41271487  0.95238537    -0.60400
N1553       N  0.95954702  0.45960723  0.93743614    -0.02200
N1554       N  0.93821918  0.45171197  0.91349972    -0.61100
Mn1555     Mn  0.99823431  0.43614838  0.00078756     1.10700
C1556       C  0.92457253  0.42249042  0.92312876     1.01900
C1557       C  0.57190770  0.42252892  0.92312968     1.02000
N1558       N  0.53694343  0.06312059  0.96047960    -0.03300
N1559       N  0.55831959  0.08695355  0.95240568    -0.57300
N1560       N  0.95953433  0.04000459  0.93744168    -0.02700
N1561       N  0.93821437  0.04789913  0.91350244    -0.55400
N1562       N  0.95948443  0.06309829  0.96048157    -0.04000
N1563       N  0.93810300  0.08691919  0.95241267    -0.58300
N1564       N  0.53690527  0.04002151  0.93744526    -0.03000
N1565       N  0.55822916  0.04792113  0.91350682    -0.55500
Mn1566     Mn  0.49821238  0.06347263  0.50080905     1.20200
Mn1567     Mn  0.99822589  0.99981389  0.93712771     1.10100
Cl1568     Cl  0.49822324  0.99981055  0.50079820    -0.83400
C1569       C  0.57187292  0.07714466  0.92314522     0.98900
C1570       C  0.92455777  0.07711106  0.92314875     0.98700
C1571       C  0.90105116  0.40129315  0.90160729     0.00000
C1572       C  0.90105160  0.40128208  0.59997146     0.00000
N1573       N  0.79860088  0.41015205  0.50080520    -0.34100
N1574       N  0.74824495  0.40863655  0.94915541    -0.54600
N1575       N  0.69788716  0.41013533  0.50081130    -0.34100
N1576       N  0.74823862  0.40857875  0.55246276    -0.54600
C1577       C  0.81645142  0.40071848  0.97402939     0.29500
C1578       C  0.81644842  0.40070072  0.52756948     0.29500
C1579       C  0.68003623  0.40070684  0.97403502     0.29500
C1580       C  0.68003369  0.40067811  0.52757453     0.29500
C1581       C  0.77551110  0.41421497  0.93015790     0.38100
C1582       C  0.72098144  0.41421827  0.93016243     0.38100
C1583       C  0.77550338  0.41416052  0.57145980     0.38100
C1584       C  0.72097275  0.41415122  0.57146274     0.38100
C1585       C  0.84563327  0.38476005  0.98390759    -0.19400
C1586       C  0.84563153  0.38474918  0.51767306    -0.19400
C1587       C  0.65084903  0.38474249  0.98391092    -0.19400
C1588       C  0.65084762  0.38472407  0.51767690    -0.19400
C1589       C  0.76564189  0.42296621  0.89848403    -0.20400
C1590       C  0.73085469  0.42296914  0.89848717    -0.20400
C1591       C  0.76563131  0.42290236  0.60314064    -0.20400
C1592       C  0.73084357  0.42289648  0.60314250    -0.20400
C1593       C  0.80868810  0.40878974  0.94110145    -0.15800
C1594       C  0.80868272  0.40875389  0.56050542    -0.15800
C1595       C  0.68779324  0.40873725  0.56050945    -0.15800
C1596       C  0.68780172  0.40879559  0.94111055    -0.15800
H1597       H  0.86515228  0.37441247  0.96846135     0.17100
H1598       H  0.86514881  0.37439215  0.53310782     0.17100
H1599       H  0.63132728  0.37439992  0.96846248     0.17100
H1600       H  0.63132444  0.37436530  0.53311153     0.17100
H1601       H  0.78174877  0.42813694  0.87755362     0.15400
H1602       H  0.71475013  0.42814158  0.87755943     0.15400
H1603       H  0.78173694  0.42807689  0.62407085     0.15400
H1604       H  0.71473729  0.42806547  0.62407442     0.15400
H1605       H  0.77706242  0.42471671  0.50081497     0.28700
H1606       H  0.71942741  0.42470571  0.50082160     0.28700
C1607       C  0.90104542  0.09831265  0.90163264     0.00000
N1608       N  0.90749780  0.49980500  0.80045115    -0.34100
N1609       N  0.90594537  0.44820129  0.75079842    -0.54600
N1610       N  0.90746490  0.49979472  0.70115189    -0.34100
N1611       N  0.90589431  0.05139812  0.75080404    -0.54600
C1612       C  0.89812786  0.47304291  0.81810978     0.29500
C1613       C  0.89810632  0.02656198  0.81811174     0.29500
C1614       C  0.89808304  0.47302670  0.68349947     0.29500
C1615       C  0.89805971  0.02654544  0.68350167     0.29500
C1616       C  0.91180804  0.42928292  0.77762653     0.38100
C1617       C  0.91179792  0.42927847  0.72396237     0.38100
C1618       C  0.91174488  0.07032911  0.77763532     0.38100
C1619       C  0.91172744  0.07032271  0.72397153     0.38100
C1620       C  0.88227588  0.48292783  0.84704224    -0.19400
C1621       C  0.88226202  0.01666928  0.84704327    -0.19400
C1622       C  0.88220675  0.48290070  0.65458276    -0.19400
C1623       C  0.88219348  0.01664289  0.65458343    -0.19400
C1624       C  0.92103532  0.39774033  0.76790020    -0.20400
C1625       C  0.92103033  0.39773789  0.73367558    -0.20400
C1626       C  0.92094223  0.10188139  0.76791489    -0.20400
C1627       C  0.92093134  0.10187723  0.73369038    -0.20400
C1628       C  0.90622072  0.44013019  0.81030440    -0.15800
C1629       C  0.90617782  0.05948020  0.81031185    -0.15800
C1630       C  0.90613900  0.05946551  0.69129755    -0.15800
C1631       C  0.90619472  0.44011931  0.69129055    -0.15800
H1632       H  0.87200799  0.46750687  0.86638446     0.17100
H1633       H  0.87198186  0.03208603  0.86638624     0.17100
H1634       H  0.87192592  0.46747140  0.63524871     0.17100
H1635       H  0.87190127  0.03205392  0.63525000     0.17100
H1636       H  0.92655228  0.37689947  0.78373843     0.15400
H1637       H  0.92654181  0.37689454  0.71782901     0.15400
H1638       H  0.92644426  0.12273193  0.78375710     0.15400
H1639       H  0.92642312  0.12272388  0.71784768     0.15400
H1640       H  0.92202979  0.49981071  0.77906958     0.28700
H1641       H  0.92201577  0.49980711  0.72251891     0.28700
C1642       C  0.90100628  0.09828281  0.59998236     0.00000
N1643       N  0.79855817  0.08948204  0.50078497    -0.34100
N1644       N  0.74820625  0.09104880  0.94913323    -0.54600
N1645       N  0.69784361  0.08948161  0.50079116    -0.34100
N1646       N  0.74819991  0.09098779  0.55244112    -0.54600
C1647       C  0.81641313  0.09893750  0.97402191     0.29500
C1648       C  0.81641066  0.09890756  0.52756155     0.29500
C1649       C  0.67999524  0.09893168  0.97402706     0.29500
C1650       C  0.67999209  0.09891255  0.52756724     0.29500
C1651       C  0.77547124  0.08547864  0.93013129     0.38100
C1652       C  0.72094072  0.08547593  0.93013466     0.38100
C1653       C  0.77546265  0.08540722  0.57143566     0.38100
C1654       C  0.72093293  0.08541712  0.57143983     0.38100
C1655       C  0.84560178  0.11488645  0.98392014    -0.19400
C1656       C  0.84560036  0.11486741  0.51768574    -0.19400
C1657       C  0.65081025  0.11487970  0.98392392    -0.19400
C1658       C  0.65080841  0.11486807  0.51768932    -0.19400
C1659       C  0.76559904  0.07674493  0.89844873    -0.20400
C1660       C  0.73081145  0.07674322  0.89845087    -0.20400
C1661       C  0.76558800  0.07666567  0.60311308    -0.20400
C1662       C  0.73080091  0.07667277  0.60311597    -0.20400
C1663       C  0.80865178  0.09088390  0.94108591    -0.15800
C1664       C  0.80864346  0.09082266  0.56048674    -0.15800
C1665       C  0.68775611  0.09084176  0.56049526    -0.15800
C1666       C  0.68776166  0.09088053  0.94109069    -0.15800
H1667       H  0.86512609  0.12524388  0.96848614     0.17100
H1668       H  0.86512335  0.12520798  0.53313388     0.17100
H1669       H  0.63129177  0.12523496  0.96848946     0.17100
H1670       H  0.63128810  0.12521310  0.53313566     0.17100
H1671       H  0.78170438  0.07158084  0.87751491     0.15400
H1672       H  0.71470507  0.07157752  0.87751901     0.15400
H1673       H  0.78169164  0.07149678  0.62404239     0.15400
H1674       H  0.71469330  0.07150954  0.62404771     0.15400
H1675       H  0.77701505  0.07491576  0.50077427     0.28700
H1676       H  0.71938338  0.07491906  0.50078096     0.28700
C1677       C  0.59543915  0.40134026  0.90161325     0.00000
N1678       N  0.99824866  0.29898224  0.90689371    -0.34100
N1679       N  0.94563899  0.24981483  0.90556420    -0.54600
N1680       N  0.99824476  0.20067660  0.90688744    -0.34100
N1681       N  0.55085629  0.24983980  0.90555427    -0.54600
C1682       C  0.97105628  0.31620789  0.89690796     0.29500
C1683       C  0.52543970  0.31621994  0.89690250     0.29500
C1684       C  0.97105432  0.18343739  0.89689619     0.29500
C1685       C  0.52543588  0.18345185  0.89688863     0.29500
C1686       C  0.92673745  0.27661102  0.91222177     0.38100
C1687       C  0.92673763  0.22301381  0.91222328     0.38100
C1688       C  0.56975964  0.27664237  0.91220781     0.38100
C1689       C  0.56975531  0.22304510  0.91221093     0.38100
C1690       C  0.98106794  0.34426535  0.87985632    -0.19400
C1691       C  0.51542602  0.34427308  0.87985297    -0.19400
C1692       C  0.98106623  0.15538534  0.87983078    -0.19400
C1693       C  0.51542457  0.15539496  0.87982511    -0.19400
C1694       C  0.89512965  0.26692568  0.92287427    -0.20400
C1695       C  0.89513014  0.23269070  0.92287617    -0.20400
C1696       C  0.60136721  0.26696781  0.92285519    -0.20400
C1697       C  0.60136390  0.23273251  0.92285862    -0.20400
C1698       C  0.93776876  0.30909320  0.90600171    -0.15800
C1699       C  0.55872762  0.30912019  0.90599038    -0.15800
C1700       C  0.55871966  0.19056180  0.90599211    -0.15800
C1701       C  0.93777035  0.19053386  0.90600330    -0.15800
H1702       H  0.96530780  0.36310956  0.86899431     0.17100
H1703       H  0.53118489  0.36312446  0.86898831     0.17100
H1704       H  0.96530586  0.13653269  0.86896464     0.17100
H1705       H  0.53118540  0.13655096  0.86895327     0.17100
H1706       H  0.87424621  0.28277495  0.92933327     0.15400
H1707       H  0.87424730  0.21683583  0.92933627     0.15400
H1708       H  0.62225194  0.28282408  0.92930984     0.15400
H1709       H  0.62224586  0.21688442  0.92931542     0.15400
H1710       H  0.99824926  0.27845031  0.92237756     0.28700
H1711       H  0.99824501  0.22120594  0.92238381     0.28700
C1712       C  0.59539265  0.09834345  0.90162639     0.00000
N1713       N  0.58894847  0.49982121  0.70114771    -0.34100
N1714       N  0.59050243  0.05142540  0.75079893    -0.54600
N1715       N  0.58898442  0.49983143  0.80044404    -0.34100
N1716       N  0.59055161  0.44822757  0.75079334    -0.54600
C1717       C  0.59832235  0.02658315  0.68349079     0.29500
C1718       C  0.59834404  0.47306423  0.68348925     0.29500
C1719       C  0.59836824  0.02659942  0.81809561     0.29500
C1720       C  0.59839190  0.47308064  0.81809297     0.29500
C1721       C  0.58463725  0.07034302  0.72397094     0.38100
C1722       C  0.58464862  0.07034760  0.77763501     0.38100
C1723       C  0.58469739  0.42929780  0.72396227     0.38100
C1724       C  0.58471613  0.42930402  0.77762577     0.38100
C1725       C  0.61418156  0.01669830  0.65456228    -0.19400
C1726       C  0.61419572  0.48295662  0.65456160    -0.19400
C1727       C  0.61424873  0.01672538  0.84700999    -0.19400
C1728       C  0.61426239  0.48298298  0.84700900    -0.19400
C1729       C  0.57540704  0.10188481  0.73369723    -0.20400
C1730       C  0.57541288  0.10188736  0.76792198    -0.20400
C1731       C  0.57549438  0.39774699  0.73368256    -0.20400
C1732       C  0.57550620  0.39775098  0.76790723    -0.20400
C1733       C  0.59022570  0.05949541  0.69129352    -0.15800
C1734       C  0.59026832  0.44014659  0.69128667    -0.15800
C1735       C  0.59030906  0.44016096  0.81029882    -0.15800
C1736       C  0.59025354  0.05950656  0.81030639    -0.15800
H1737       H  0.62445335  0.03211967  0.63522233     0.17100
H1738       H  0.62448012  0.46753931  0.63522116     0.17100
H1739       H  0.62453131  0.03215502  0.86634292     0.17100
H1740       H  0.62455656  0.46757148  0.86634114     0.17100
H1741       H  0.56988758  0.12272500  0.71785893     0.15400
H1742       H  0.56989964  0.12273016  0.78376870     0.15400
H1743       H  0.56998849  0.37689749  0.71784025     0.15400
H1744       H  0.57001141  0.37690518  0.78375009     0.15400
H1745       H  0.57441095  0.49981564  0.72252578     0.28700
H1746       H  0.57443020  0.49981916  0.77907919     0.28700
C1747       C  0.59539320  0.09833164  0.59998917     0.00000
C1748       C  0.59540013  0.40131118  0.59996608     0.00000
N1749       N  0.99819730  0.29894755  0.59472108    -0.34100
N1750       N  0.94558508  0.24978393  0.59604629    -0.54600
N1751       N  0.99819340  0.20064155  0.59469322    -0.34100
N1752       N  0.55080282  0.24980890  0.59603155    -0.54600
C1753       C  0.97100615  0.31617065  0.60472261     0.29500
C1754       C  0.52538790  0.31618511  0.60471478     0.29500
C1755       C  0.97100246  0.18340162  0.60468124     0.29500
C1756       C  0.52538584  0.18341370  0.60467555     0.29500
C1757       C  0.92668642  0.27658000  0.58939395     0.38100
C1758       C  0.92668162  0.22298266  0.58938732     0.38100
C1759       C  0.56970513  0.27661127  0.58938078     0.38100
C1760       C  0.56970584  0.22301406  0.58937261     0.38100
C1761       C  0.98101740  0.34422491  0.62179055    -0.19400
C1762       C  0.51537611  0.34423458  0.62178467    -0.19400
C1763       C  0.98101637  0.15534502  0.62172477    -0.19400
C1764       C  0.51537398  0.15535273  0.62172124    -0.19400
C1765       C  0.89507792  0.26689472  0.57874403    -0.20400
C1766       C  0.89507424  0.23265942  0.57874148    -0.20400
C1767       C  0.60131469  0.26693654  0.57873165    -0.20400
C1768       C  0.60131560  0.23270159  0.57872762    -0.20400
C1769       C  0.93772270  0.30906241  0.59561655    -0.15800
C1770       C  0.55867174  0.30909003  0.59560573    -0.15800
C1771       C  0.55867426  0.19053074  0.59558645    -0.15800
C1772       C  0.93771388  0.19050338  0.59559727    -0.15800
H1773       H  0.96525609  0.36306722  0.63266480     0.17100
H1774       H  0.53113697  0.36308568  0.63265309     0.17100
H1775       H  0.96525813  0.13649179  0.63258687     0.17100
H1776       H  0.53113349  0.13650657  0.63258056     0.17100
H1777       H  0.87419642  0.28274411  0.57228900     0.15400
H1778       H  0.87418977  0.21680449  0.57228277     0.15400
H1779       H  0.62219895  0.28279273  0.57227914     0.15400
H1780       H  0.62220069  0.21685370  0.57227036     0.15400
H1781       H  0.99819680  0.27842097  0.57922110     0.28700
H1782       H  0.99819255  0.22117737  0.57921450     0.28700
C1783       C  0.58986953  0.36580503  0.59439400    -0.10700
C1784       C  0.58069300  0.33739432  0.59322471    -0.12300
C1785       C  0.58988776  0.13383710  0.59441555    -0.10700
C1786       C  0.58070969  0.16224249  0.59322822    -0.12300
C1787       C  0.58992267  0.40771509  0.63536707    -0.10700
C1788       C  0.58857261  0.41780526  0.66343211    -0.12300
C1789       C  0.58853934  0.08183637  0.66344657    -0.10700
C1790       C  0.58990464  0.09193368  0.63538832    -0.12300
C1791       C  0.58990675  0.09194110  0.86622619    -0.10700
C1792       C  0.58855253  0.08184591  0.83816283    -0.12300
C1793       C  0.58073585  0.16226394  0.90837742    -0.10700
C1794       C  0.58989156  0.13385057  0.90720603    -0.12300
C1795       C  0.58997347  0.40773891  0.86621292    -0.10700
C1796       C  0.58862333  0.41782785  0.83815181    -0.12300
C1797       C  0.58992788  0.36583215  0.90717771    -0.10700
C1798       C  0.58075626  0.33742082  0.90835548    -0.12300
C1799       C  0.65932146  0.08927646  0.58270326    -0.10700
C1800       C  0.63079479  0.09120395  0.59269161    -0.12300
C1801       C  0.65932492  0.08930591  0.91889029    -0.10700
C1802       C  0.63079516  0.09122144  0.90891387    -0.12300
C1803       C  0.91568418  0.16220312  0.59323260    -0.10700
C1804       C  0.90651425  0.13379116  0.59441370    -0.12300
C1805       C  0.86560680  0.09114834  0.59267322    -0.10700
C1806       C  0.83707931  0.08923341  0.58268655    -0.12300
C1807       C  0.90782415  0.08179956  0.66344492    -0.10700
C1808       C  0.90647337  0.09188778  0.63538341    -0.12300
C1809       C  0.90657317  0.13381876  0.90721023    -0.10700
C1810       C  0.91574818  0.16222995  0.90838401    -0.12300
C1811       C  0.86563509  0.09120111  0.90892428    -0.10700
C1812       C  0.83709740  0.08929710  0.91889131    -0.12300
C1813       C  0.90652413  0.09191300  0.86623086    -0.10700
C1814       C  0.90787371  0.08182291  0.83816564    -0.12300
C1815       C  0.63081031  0.40842011  0.59267198    -0.10700
C1816       C  0.65934738  0.41032404  0.58270348    -0.12300
C1817       C  0.65936563  0.41038533  0.91891161    -0.10700
C1818       C  0.63083857  0.40847152  0.90892417    -0.12300
C1819       C  0.90789352  0.41777891  0.66343497    -0.10700
C1820       C  0.90653764  0.40768452  0.63537148    -0.12300
C1821       C  0.90655222  0.36577468  0.59439436    -0.10700
C1822       C  0.91570838  0.33736134  0.59322767    -0.12300
C1823       C  0.83711947  0.41032548  0.58270649    -0.10700
C1824       C  0.86564917  0.40840601  0.59268307    -0.12300
C1825       C  0.86564958  0.40842210  0.90890517    -0.10700
C1826       C  0.83712284  0.41035260  0.91889317    -0.12300
C1827       C  0.90790554  0.41778772  0.83815007    -0.10700
C1828       C  0.90653968  0.40769057  0.86620824    -0.12300
C1829       C  0.91573537  0.33738251  0.90836368    -0.10700
C1830       C  0.90655667  0.36578774  0.90717975    -0.12300
N1831       N  0.53696245  0.93652288  0.04111476    -0.03600
N1832       N  0.55834363  0.91270202  0.04918463    -0.55700
N1833       N  0.95954244  0.95960037  0.06415196    -0.03300
N1834       N  0.93821816  0.95170205  0.08809045    -0.57800
N1835       N  0.95950357  0.93650089  0.04111796    -0.02900
N1836       N  0.93812646  0.91266883  0.04919236    -0.55700
N1837       N  0.53691286  0.95961751  0.06415372    -0.02500
N1838       N  0.55823262  0.95172382  0.08809319    -0.58200
C1839       C  0.57188866  0.92251140  0.07844828     0.98600
C1840       C  0.92457330  0.92247887  0.07845261     0.98400
N1841       N  0.95948303  0.56309181  0.04113701    -0.03800
N1842       N  0.93809254  0.58690688  0.04921130    -0.56300
N1843       N  0.53690056  0.54001471  0.06415971    -0.01900
N1844       N  0.55822768  0.54791109  0.08809638    -0.57500
N1845       N  0.53693902  0.56311444  0.04113559    -0.03800
N1846       N  0.55831806  0.58694462  0.04921513    -0.56600
N1847       N  0.95953019  0.53999731  0.06416641    -0.01500
N1848       N  0.93819798  0.54788465  0.08810345    -0.57600
Mn1849     Mn  0.49822162  0.99980803  0.06446866     1.18400
C1850       C  0.92453929  0.57709369  0.07846727     1.00700
C1851       C  0.57187304  0.57713327  0.07846744     1.01300
N1852       N  0.95950784  0.93650744  0.46046023    -0.03800
N1853       N  0.93812757  0.91267827  0.45238080    -0.60100
N1854       N  0.53691716  0.95962489  0.43743125    -0.02600
N1855       N  0.55824948  0.95173821  0.41349429    -0.60800
N1856       N  0.53696391  0.93652973  0.46046002    -0.03300
N1857       N  0.55835443  0.91271482  0.45238534    -0.60400
N1858       N  0.95954693  0.95960730  0.43743615    -0.02200
N1859       N  0.93821906  0.95171204  0.41349976    -0.61100
Mn1860     Mn  0.99823427  0.93614838  0.50078755     1.10700
C1861       C  0.92457250  0.92249045  0.42312878     1.01900
C1862       C  0.57190775  0.92252891  0.42312970     1.02000
N1863       N  0.53694340  0.56312065  0.46047958    -0.03300
N1864       N  0.55831964  0.58695356  0.45240570    -0.57300
N1865       N  0.95953438  0.54000467  0.43744166    -0.02700
N1866       N  0.93821440  0.54789917  0.41350242    -0.55400
N1867       N  0.95948443  0.56309835  0.46048156    -0.04000
N1868       N  0.93810294  0.58691920  0.45241270    -0.58300
N1869       N  0.53690520  0.54002158  0.43744523    -0.03000
N1870       N  0.55822910  0.54792117  0.41350680    -0.55500
Mn1871     Mn  0.49821238  0.56347260  0.00080905     1.20200
Mn1872     Mn  0.99822587  0.49981392  0.43712771     1.10100
Cl1873     Cl  0.49822327  0.49981050  0.00079820    -0.83400
C1874       C  0.57187295  0.57714465  0.42314522     0.98900
C1875       C  0.92455774  0.57711106  0.42314877     0.98700
C1876       C  0.90105117  0.90129316  0.40160730     0.00000
C1877       C  0.90105160  0.90128210  0.09997146     0.00000
N1878       N  0.79860089  0.91015211  0.00080520    -0.34100
N1879       N  0.74824496  0.90863657  0.44915541    -0.54600
N1880       N  0.69788709  0.91013542  0.00081132    -0.34100
N1881       N  0.74823859  0.90857877  0.05246276    -0.54600
C1882       C  0.81645140  0.90071846  0.47402939     0.29500
C1883       C  0.81644840  0.90070074  0.02756947     0.29500
C1884       C  0.68003623  0.90070684  0.47403501     0.29500
C1885       C  0.68003365  0.90067815  0.02757455     0.29500
C1886       C  0.77551112  0.91421498  0.43015791     0.38100
C1887       C  0.72098146  0.91421829  0.43016242     0.38100
C1888       C  0.77550336  0.91416053  0.07145977     0.38100
C1889       C  0.72097273  0.91415125  0.07146277     0.38100
C1890       C  0.84563326  0.88476005  0.48390759    -0.19400
C1891       C  0.84563150  0.88474919  0.01767303    -0.19400
C1892       C  0.65084903  0.88474251  0.48391094    -0.19400
C1893       C  0.65084759  0.88472407  0.01767689    -0.19400
C1894       C  0.76564194  0.92296623  0.39848404    -0.20400
C1895       C  0.73085474  0.92296916  0.39848717    -0.20400
C1896       C  0.76563133  0.92290238  0.10314062    -0.20400
C1897       C  0.73084359  0.92289651  0.10314252    -0.20400
C1898       C  0.80868812  0.90878975  0.44110147    -0.15800
C1899       C  0.80868270  0.90875390  0.06050540    -0.15800
C1900       C  0.68779319  0.90873729  0.06050948    -0.15800
C1901       C  0.68780173  0.90879560  0.44111053    -0.15800
H1902       H  0.86515230  0.87441257  0.46846134     0.17100
H1903       H  0.86514878  0.87439216  0.03310778     0.17100
H1904       H  0.63132727  0.87439995  0.46846251     0.17100
H1905       H  0.63132443  0.87436526  0.03311152     0.17100
H1906       H  0.78174882  0.92813697  0.37755363     0.15400
H1907       H  0.71475020  0.92814161  0.37755940     0.15400
H1908       H  0.78173702  0.92807690  0.12407079     0.15400
H1909       H  0.71473735  0.92806550  0.12407447     0.15400
H1910       H  0.77706246  0.92471683  0.00081499     0.28700
H1911       H  0.71942734  0.92470587  0.00082164     0.28700
C1912       C  0.90104543  0.59831266  0.40163263     0.00000
N1913       N  0.90749774  0.99980502  0.30045114    -0.34100
N1914       N  0.90594541  0.94820130  0.25079842    -0.54600
N1915       N  0.90746497  0.99979474  0.20115185    -0.34100
N1916       N  0.90589438  0.55139805  0.25080404    -0.54600
C1917       C  0.89812783  0.97304292  0.31810978     0.29500
C1918       C  0.89810629  0.52656196  0.31811173     0.29500
C1919       C  0.89808311  0.97302671  0.18349944     0.29500
C1920       C  0.89805972  0.52654539  0.18350167     0.29500
C1921       C  0.91180805  0.92928293  0.27762653     0.38100
C1922       C  0.91179799  0.92927850  0.22396236     0.38100
C1923       C  0.91174480  0.57032909  0.27763531     0.38100
C1924       C  0.91172747  0.57032265  0.22397152     0.38100
C1925       C  0.88227590  0.98292785  0.34704227    -0.19400
C1926       C  0.88226203  0.51666927  0.34704328    -0.19400
C1927       C  0.88220680  0.98290073  0.15458273    -0.19400
C1928       C  0.88219345  0.51664285  0.15458346    -0.19400
C1929       C  0.92103536  0.89774034  0.26790018    -0.20400
C1930       C  0.92103043  0.89773792  0.23367557    -0.20400
C1931       C  0.92094207  0.60188138  0.26791489    -0.20400
C1932       C  0.92093126  0.60187719  0.23369039    -0.20400
C1933       C  0.90622072  0.94013020  0.31030440    -0.15800
C1934       C  0.90617771  0.55948019  0.31031183    -0.15800
C1935       C  0.90613901  0.55946546  0.19129755    -0.15800
C1936       C  0.90619475  0.94011932  0.19129055    -0.15800
H1937       H  0.87200801  0.96750691  0.36638450     0.17100
H1938       H  0.87198187  0.53208604  0.36638623     0.17100
H1939       H  0.87192591  0.96747142  0.13524872     0.17100
H1940       H  0.87190114  0.53205387  0.13525007     0.17100
H1941       H  0.92655231  0.87689947  0.28373841     0.15400
H1942       H  0.92654190  0.87689457  0.21782900     0.15400
H1943       H  0.92644405  0.62273195  0.28375708     0.15400
H1944       H  0.92642301  0.62272385  0.21784769     0.15400
H1945       H  0.92202971  0.99981072  0.27906954     0.28700
H1946       H  0.92201585  0.99980713  0.22251887     0.28700
C1947       C  0.90100626  0.59828280  0.09998238     0.00000
N1948       N  0.79855810  0.58948204  0.00078496    -0.34100
N1949       N  0.74820620  0.59104883  0.44913323    -0.54600
N1950       N  0.69784369  0.58948161  0.00079118    -0.34100
N1951       N  0.74819989  0.59098776  0.05244114    -0.54600
C1952       C  0.81641312  0.59893750  0.47402190     0.29500
C1953       C  0.81641062  0.59890753  0.02756154     0.29500
C1954       C  0.67999520  0.59893169  0.47402705     0.29500
C1955       C  0.67999216  0.59891257  0.02756725     0.29500
C1956       C  0.77547119  0.58547861  0.43013130     0.38100
C1957       C  0.72094068  0.58547595  0.43013466     0.38100
C1958       C  0.77546264  0.58540717  0.07143565     0.38100
C1959       C  0.72093293  0.58541707  0.07143987     0.38100
C1960       C  0.84560176  0.61488652  0.48392012    -0.19400
C1961       C  0.84560034  0.61486733  0.01768572    -0.19400
C1962       C  0.65081023  0.61487977  0.48392390    -0.19400
C1963       C  0.65080849  0.61486808  0.01768932    -0.19400
C1964       C  0.76559899  0.57674484  0.39844876    -0.20400
C1965       C  0.73081140  0.57674319  0.39845087    -0.20400
C1966       C  0.76558802  0.57666559  0.10311307    -0.20400
C1967       C  0.73080093  0.57667266  0.10311599    -0.20400
C1968       C  0.80865175  0.59088391  0.44108591    -0.15800
C1969       C  0.80864343  0.59082265  0.06048673    -0.15800
C1970       C  0.68775612  0.59084177  0.06049529    -0.15800
C1971       C  0.68776162  0.59088054  0.44109069    -0.15800
H1972       H  0.86512608  0.62524398  0.46848612     0.17100
H1973       H  0.86512336  0.62520781  0.03313387     0.17100
H1974       H  0.63129173  0.62523502  0.46848945     0.17100
H1975       H  0.63128818  0.62521315  0.03313562     0.17100
H1976       H  0.78170435  0.57158068  0.37751498     0.15400
H1977       H  0.71470500  0.57157755  0.37751900     0.15400
H1978       H  0.78169168  0.57149680  0.12404238     0.15400
H1979       H  0.71469337  0.57150939  0.12404776     0.15400
H1980       H  0.77701497  0.57491583  0.00077426     0.28700
H1981       H  0.71938347  0.57491907  0.00078099     0.28700
C1982       C  0.59543917  0.90134026  0.40161325     0.00000
N1983       N  0.99824868  0.79898227  0.40689372    -0.34100
N1984       N  0.94563904  0.74981487  0.40556419    -0.54600
N1985       N  0.99824478  0.70067658  0.40688745    -0.34100
N1986       N  0.55085624  0.74983978  0.40555427    -0.54600
C1987       C  0.97105630  0.81620793  0.39690795     0.29500
C1988       C  0.52543968  0.81621997  0.39690249     0.29500
C1989       C  0.97105434  0.68343738  0.39689617     0.29500
C1990       C  0.52543589  0.68345180  0.39688865     0.29500
C1991       C  0.92673747  0.77661105  0.41222177     0.38100
C1992       C  0.92673770  0.72301384  0.41222329     0.38100
C1993       C  0.56975957  0.77664237  0.41220782     0.38100
C1994       C  0.56975529  0.72304509  0.41221092     0.38100
C1995       C  0.98106798  0.84426539  0.37985631    -0.19400
C1996       C  0.51542600  0.84427311  0.37985296    -0.19400
C1997       C  0.98106621  0.65538532  0.37983074    -0.19400
C1998       C  0.51542455  0.65539494  0.37982511    -0.19400
C1999       C  0.89512967  0.76692570  0.42287427    -0.20400
C2000       C  0.89513021  0.73269072  0.42287619    -0.20400
C2001       C  0.60136713  0.76696786  0.42285520    -0.20400
C2002       C  0.60136386  0.73273256  0.42285859    -0.20400
C2003       C  0.93776877  0.80909323  0.40600169    -0.15800
C2004       C  0.55872756  0.80912022  0.40599042    -0.15800
C2005       C  0.55871966  0.69056178  0.40599212    -0.15800
C2006       C  0.93777040  0.69053389  0.40600330    -0.15800
H2007       H  0.96530788  0.86310963  0.36899429     0.17100
H2008       H  0.53118485  0.86312452  0.36898832     0.17100
H2009       H  0.96530581  0.63653269  0.36896458     0.17100
H2010       H  0.53118534  0.63655092  0.36895326     0.17100
H2011       H  0.87424622  0.78277495  0.42933328     0.15400
H2012       H  0.87424740  0.71683580  0.42933627     0.15400
H2013       H  0.62225183  0.78282414  0.42930987     0.15400
H2014       H  0.62224585  0.71688453  0.42931540     0.15400
H2015       H  0.99824928  0.77845035  0.42237757     0.28700
H2016       H  0.99824505  0.72120590  0.42238380     0.28700
C2017       C  0.59539267  0.59834344  0.40162639     0.00000
N2018       N  0.58894843  0.99982119  0.20114771    -0.34100
N2019       N  0.59050243  0.55142534  0.25079895    -0.54600
N2020       N  0.58898447  0.99983142  0.30044406    -0.34100
N2021       N  0.59055169  0.94822754  0.25079334    -0.54600
C2022       C  0.59832225  0.52658310  0.18349077     0.29500
C2023       C  0.59834403  0.97306422  0.18348925     0.29500
C2024       C  0.59836832  0.52659942  0.31809560     0.29500
C2025       C  0.59839194  0.97308063  0.31809298     0.29500
C2026       C  0.58463726  0.57034296  0.22397095     0.38100
C2027       C  0.58464864  0.57034757  0.27763502     0.38100
C2028       C  0.58469742  0.92929778  0.22396227     0.38100
C2029       C  0.58471618  0.92930401  0.27762577     0.38100
C2030       C  0.61418145  0.51669826  0.15456226    -0.19400
C2031       C  0.61419565  0.98295663  0.15456157    -0.19400
C2032       C  0.61424884  0.51672538  0.34700998    -0.19400
C2033       C  0.61426245  0.98298298  0.34700901    -0.19400
C2034       C  0.57540710  0.60188476  0.23369725    -0.20400
C2035       C  0.57541293  0.60188733  0.26792199    -0.20400
C2036       C  0.57549438  0.89774698  0.23368255    -0.20400
C2037       C  0.57550617  0.89775098  0.26790722    -0.20400
C2038       C  0.59022570  0.55949538  0.19129354    -0.15800
C2039       C  0.59026838  0.94014658  0.19128667    -0.15800
C2040       C  0.59030914  0.94016095  0.31029883    -0.15800
C2041       C  0.59025360  0.55950655  0.31030638    -0.15800
H2042       H  0.62445331  0.53211967  0.13522238     0.17100
H2043       H  0.62448004  0.96753935  0.13522111     0.17100
H2044       H  0.62453143  0.53215502  0.36634290     0.17100
H2045       H  0.62455668  0.96757150  0.36634113     0.17100
H2046       H  0.56988770  0.62272494  0.21785894     0.15400
H2047       H  0.56989972  0.62273016  0.28376868     0.15400
H2048       H  0.56998857  0.87689745  0.21784025     0.15400
H2049       H  0.57001134  0.87690520  0.28375009     0.15400
H2050       H  0.57441091  0.99981560  0.22252579     0.28700
H2051       H  0.57443025  0.99981912  0.27907917     0.28700
C2052       C  0.59539316  0.59833163  0.09998917     0.00000
C2053       C  0.59540008  0.90131117  0.09996608     0.00000
N2054       N  0.99819732  0.79894758  0.09472107    -0.34100
N2055       N  0.94558514  0.74978395  0.09604628    -0.54600
N2056       N  0.99819343  0.70064156  0.09469321    -0.34100
N2057       N  0.55080281  0.74980892  0.09603156    -0.54600
C2058       C  0.97100616  0.81617067  0.10472260     0.29500
C2059       C  0.52538790  0.81618512  0.10471476     0.29500
C2060       C  0.97100249  0.68340163  0.10468122     0.29500
C2061       C  0.52538580  0.68341373  0.10467554     0.29500
C2062       C  0.92668646  0.77658002  0.08939393     0.38100
C2063       C  0.92668168  0.72298267  0.08938730     0.38100
C2064       C  0.56970513  0.77661128  0.08938078     0.38100
C2065       C  0.56970582  0.72301408  0.08937261     0.38100
C2066       C  0.98101742  0.84422492  0.12179053    -0.19400
C2067       C  0.51537614  0.84423459  0.12178467    -0.19400
C2068       C  0.98101640  0.65534506  0.12172476    -0.19400
C2069       C  0.51537395  0.65535275  0.12172124    -0.19400
C2070       C  0.89507796  0.76689473  0.07874401    -0.20400
C2071       C  0.89507429  0.73265942  0.07874147    -0.20400
C2072       C  0.60131469  0.76693656  0.07873164    -0.20400
C2073       C  0.60131558  0.73270162  0.07872762    -0.20400
C2074       C  0.93772271  0.80906243  0.09561656    -0.15800
C2075       C  0.55867174  0.80909003  0.09560571    -0.15800
C2076       C  0.55867423  0.69053076  0.09558644    -0.15800
C2077       C  0.93771391  0.69050339  0.09559726    -0.15800
H2078       H  0.96525611  0.86306722  0.13266479     0.17100
H2079       H  0.53113702  0.86308567  0.13265307     0.17100
H2080       H  0.96525816  0.63649183  0.13258685     0.17100
H2081       H  0.53113350  0.63650661  0.13258053     0.17100
H2082       H  0.87419646  0.78274413  0.07228902     0.15400
H2083       H  0.87418984  0.71680446  0.07228279     0.15400
H2084       H  0.62219895  0.78279273  0.07227907     0.15400
H2085       H  0.62220067  0.71685374  0.07227036     0.15400
H2086       H  0.99819680  0.77842100  0.07922110     0.28700
H2087       H  0.99819257  0.72117737  0.07921449     0.28700
C2088       C  0.58986955  0.86580501  0.09439400    -0.10700
C2089       C  0.58069302  0.83739430  0.09322470    -0.12300
C2090       C  0.58988768  0.63383709  0.09441555    -0.10700
C2091       C  0.58070966  0.66224251  0.09322823    -0.12300
C2092       C  0.58992262  0.90771508  0.13536707    -0.10700
C2093       C  0.58857265  0.91780526  0.16343211    -0.12300
C2094       C  0.58853945  0.58183636  0.16344660    -0.10700
C2095       C  0.58990469  0.59193367  0.13538834    -0.12300
C2096       C  0.58990683  0.59194109  0.36622618    -0.10700
C2097       C  0.58855264  0.58184589  0.33816283    -0.12300
C2098       C  0.58073587  0.66226393  0.40837742    -0.10700
C2099       C  0.58989156  0.63385055  0.40720602    -0.12300
C2100       C  0.58997345  0.90773891  0.36621293    -0.10700
C2101       C  0.58862337  0.91782785  0.33815182    -0.12300
C2102       C  0.58992790  0.86583216  0.40717777    -0.10700
C2103       C  0.58075620  0.83742085  0.40835562    -0.12300
C2104       C  0.65932143  0.58927649  0.08270326    -0.10700
C2105       C  0.63079474  0.59120398  0.09269157    -0.12300
C2106       C  0.65932491  0.58930594  0.41889029    -0.10700
C2107       C  0.63079516  0.59122148  0.40891387    -0.12300
C2108       C  0.91568415  0.66220314  0.09323261    -0.10700
C2109       C  0.90651417  0.63379118  0.09441369    -0.12300
C2110       C  0.86560677  0.59114824  0.09267325    -0.10700
C2111       C  0.83707929  0.58923336  0.08268654    -0.12300
C2112       C  0.90782421  0.58179953  0.16344492    -0.10700
C2113       C  0.90647344  0.59188778  0.13538342    -0.12300
C2114       C  0.90657325  0.63381877  0.40721024    -0.10700
C2115       C  0.91574825  0.66222996  0.40838403    -0.12300
C2116       C  0.86563508  0.59120116  0.40892426    -0.10700
C2117       C  0.83709738  0.58929713  0.41889130    -0.12300
C2118       C  0.90652415  0.59191301  0.36623085    -0.10700
C2119       C  0.90787362  0.58182291  0.33816562    -0.12300
C2120       C  0.63081025  0.90842013  0.09267199    -0.10700
C2121       C  0.65934733  0.91032406  0.08270351    -0.12300
C2122       C  0.65936565  0.91038535  0.41891160    -0.10700
C2123       C  0.63083858  0.90847155  0.40892415    -0.12300
C2124       C  0.90789358  0.91777894  0.16343496    -0.10700
C2125       C  0.90653770  0.90768454  0.13537147    -0.12300
C2126       C  0.90655221  0.86577470  0.09439436    -0.10700
C2127       C  0.91570835  0.83736134  0.09322768    -0.12300
C2128       C  0.83711946  0.91032550  0.08270648    -0.10700
C2129       C  0.86564916  0.90840603  0.09268307    -0.12300
C2130       C  0.86564959  0.90842211  0.40890516    -0.10700
C2131       C  0.83712285  0.91035263  0.41889318    -0.12300
C2132       C  0.90790563  0.91778773  0.33815008    -0.10700
C2133       C  0.90653975  0.90769059  0.36620825    -0.12300
C2134       C  0.91573537  0.83738253  0.40836366    -0.10700
C2135       C  0.90655668  0.86578776  0.40717975    -0.12300
N2136       N  0.53696247  0.93652283  0.54111477    -0.03600
N2137       N  0.55834366  0.91270198  0.54918464    -0.55700
N2138       N  0.95954241  0.95960033  0.56415191    -0.03300
N2139       N  0.93821819  0.95170197  0.58809044    -0.57800
N2140       N  0.95950349  0.93650087  0.54111789    -0.02900
N2141       N  0.93812641  0.91266879  0.54919232    -0.55700
N2142       N  0.53691293  0.95961749  0.56415372    -0.02500
N2143       N  0.55823271  0.95172381  0.58809317    -0.58200
C2144       C  0.57188873  0.92251137  0.57844827     0.98600
C2145       C  0.92457332  0.92247880  0.57845261     0.98400
N2146       N  0.95948307  0.56309188  0.54113703    -0.03800
N2147       N  0.93809253  0.58690690  0.54921131    -0.56300
N2148       N  0.53690065  0.54001467  0.56415968    -0.01900
N2149       N  0.55822777  0.54791105  0.58809635    -0.57500
N2150       N  0.53693905  0.56311443  0.54113559    -0.03800
N2151       N  0.55831805  0.58694464  0.54921516    -0.56600
N2152       N  0.95953024  0.53999736  0.56416643    -0.01500
N2153       N  0.93819802  0.54788468  0.58810346    -0.57600
Mn2154     Mn  0.49822167  0.99980802  0.56446867     1.18400
C2155       C  0.92453928  0.57709370  0.57846728     1.00700
C2156       C  0.57187306  0.57713327  0.57846745     1.01300
N2157       N  0.95950785  0.93650743  0.96046026    -0.03800
N2158       N  0.93812755  0.91267829  0.95238084    -0.60100
N2159       N  0.53691710  0.95962491  0.93743124    -0.02600
N2160       N  0.55824942  0.95173826  0.91349428    -0.60800
N2161       N  0.53696390  0.93652976  0.96046003    -0.03300
N2162       N  0.55835447  0.91271490  0.95238535    -0.60400
N2163       N  0.95954703  0.95960723  0.93743613    -0.02200
N2164       N  0.93821920  0.95171195  0.91349970    -0.61100
Mn2165     Mn  0.99823433  0.93614839  0.00078757     1.10700
C2166       C  0.92457255  0.92249040  0.92312876     1.01900
C2167       C  0.57190775  0.92252899  0.92312970     1.02000
N2168       N  0.53694344  0.56312058  0.96047960    -0.03300
N2169       N  0.55831963  0.58695352  0.95240571    -0.57300
N2170       N  0.95953433  0.54000458  0.93744166    -0.02700
N2171       N  0.93821434  0.54789911  0.91350244    -0.55400
N2172       N  0.95948443  0.56309827  0.96048156    -0.04000
N2173       N  0.93810299  0.58691917  0.95241269    -0.58300
N2174       N  0.53690522  0.54002154  0.93744524    -0.03000
N2175       N  0.55822907  0.54792117  0.91350677    -0.55500
Mn2176     Mn  0.49821236  0.56347268  0.50080904     1.20200
Mn2177     Mn  0.99822589  0.49981388  0.93712770     1.10100
Cl2178     Cl  0.49822322  0.49981060  0.50079820    -0.83400
C2179       C  0.57187291  0.57714466  0.92314520     0.98900
C2180       C  0.92455774  0.57711104  0.92314877     0.98700
C2181       C  0.90105116  0.90129312  0.90160730     0.00000
C2182       C  0.90105161  0.90128207  0.59997147     0.00000
N2183       N  0.79860088  0.91015201  0.50080519    -0.34100
N2184       N  0.74824493  0.90863652  0.94915541    -0.54600
N2185       N  0.69788706  0.91013543  0.50081133    -0.34100
N2186       N  0.74823862  0.90857872  0.55246276    -0.54600
C2187       C  0.81645140  0.90071856  0.97402940     0.29500
C2188       C  0.81644841  0.90070071  0.52756948     0.29500
C2189       C  0.68003623  0.90070680  0.97403501     0.29500
C2190       C  0.68003362  0.90067818  0.52757455     0.29500
C2191       C  0.77551107  0.91421497  0.93015791     0.38100
C2192       C  0.72098142  0.91421822  0.93016241     0.38100
C2193       C  0.77550339  0.91416052  0.57145979     0.38100
C2194       C  0.72097274  0.91415118  0.57146275     0.38100
C2195       C  0.84563322  0.88476007  0.98390756    -0.19400
C2196       C  0.84563151  0.88474916  0.51767307    -0.19400
C2197       C  0.65084905  0.88474244  0.98391093    -0.19400
C2198       C  0.65084755  0.88472411  0.51767689    -0.19400
C2199       C  0.76564187  0.92296620  0.89848403    -0.20400
C2200       C  0.73085467  0.92296910  0.89848716    -0.20400
C2201       C  0.76563132  0.92290233  0.60314065    -0.20400
C2202       C  0.73084358  0.92289644  0.60314251    -0.20400
C2203       C  0.80868809  0.90878984  0.94110148    -0.15800
C2204       C  0.80868274  0.90875399  0.56050539    -0.15800
C2205       C  0.68779320  0.90873729  0.56050947    -0.15800
C2206       C  0.68780170  0.90879561  0.94111054    -0.15800
H2207       H  0.86515220  0.87441249  0.96846130     0.17100
H2208       H  0.86514879  0.87439217  0.53310785     0.17100
H2209       H  0.63132729  0.87439988  0.96846249     0.17100
H2210       H  0.63132443  0.87436523  0.53311152     0.17100
H2211       H  0.78174874  0.92813702  0.87755363     0.15400
H2212       H  0.71475012  0.92814158  0.87755942     0.15400
H2213       H  0.78173695  0.92807688  0.62407085     0.15400
H2214       H  0.71473731  0.92806543  0.62407443     0.15400
H2215       H  0.77706246  0.92471674  0.50081496     0.28700
H2216       H  0.71942735  0.92470586  0.50082166     0.28700
C2217       C  0.90104543  0.59831267  0.90163264     0.00000
N2218       N  0.90749770  0.99980500  0.80045113    -0.34100
N2219       N  0.90594539  0.94820129  0.75079843    -0.54600
N2220       N  0.90746491  0.99979478  0.70115189    -0.34100
N2221       N  0.90589427  0.55139808  0.75080403    -0.54600
C2222       C  0.89812777  0.97304290  0.81810976     0.29500
C2223       C  0.89810627  0.52656196  0.81811173     0.29500
C2224       C  0.89808307  0.97302675  0.68349947     0.29500
C2225       C  0.89805973  0.52654539  0.68350166     0.29500
C2226       C  0.91180805  0.92928291  0.77762653     0.38100
C2227       C  0.91179795  0.92927850  0.72396236     0.38100
C2228       C  0.91174478  0.57032908  0.77763531     0.38100
C2229       C  0.91172747  0.57032266  0.72397152     0.38100
C2230       C  0.88227585  0.98292785  0.84704224    -0.19400
C2231       C  0.88226199  0.51666925  0.84704325    -0.19400
C2232       C  0.88220676  0.98290075  0.65458277    -0.19400
C2233       C  0.88219350  0.51664285  0.65458342    -0.19400
C2234       C  0.92103532  0.89774032  0.76790019    -0.20400
C2235       C  0.92103035  0.89773791  0.73367557    -0.20400
C2236       C  0.92094220  0.60188134  0.76791490    -0.20400
C2237       C  0.92093137  0.60187718  0.73369039    -0.20400
C2238       C  0.90622069  0.94013019  0.81030439    -0.15800
C2239       C  0.90617768  0.55948018  0.81031183    -0.15800
C2240       C  0.90613904  0.55946547  0.69129754    -0.15800
C2241       C  0.90619477  0.94011937  0.69129055    -0.15800
H2242       H  0.87200800  0.96750690  0.86638449     0.17100
H2243       H  0.87198180  0.53208599  0.86638621     0.17100
H2244       H  0.87192594  0.96747146  0.63524871     0.17100
H2245       H  0.87190131  0.53205391  0.63525000     0.17100
H2246       H  0.92655223  0.87689942  0.78373839     0.15400
H2247       H  0.92654181  0.87689457  0.71782900     0.15400
H2248       H  0.92644425  0.62273187  0.78375712     0.15400
H2249       H  0.92642319  0.62272383  0.71784770     0.15400
H2250       H  0.92202967  0.99981069  0.77906952     0.28700
H2251       H  0.92201581  0.99980720  0.72251889     0.28700
C2252       C  0.90100625  0.59828281  0.59998238     0.00000
N2253       N  0.79855816  0.58948199  0.50078496    -0.34100
N2254       N  0.74820625  0.59104876  0.94913324    -0.54600
N2255       N  0.69784363  0.58948157  0.50079115    -0.34100
N2256       N  0.74819990  0.59098774  0.55244112    -0.54600
C2257       C  0.81641311  0.59893751  0.97402191     0.29500
C2258       C  0.81641065  0.59890751  0.52756154     0.29500
C2259       C  0.67999525  0.59893166  0.97402706     0.29500
C2260       C  0.67999212  0.59891251  0.52756724     0.29500
C2261       C  0.77547124  0.58547861  0.93013129     0.38100
C2262       C  0.72094072  0.58547588  0.93013467     0.38100
C2263       C  0.77546264  0.58540719  0.57143566     0.38100
C2264       C  0.72093294  0.58541707  0.57143984     0.38100
C2265       C  0.84560173  0.61488652  0.98392014    -0.19400
C2266       C  0.84560034  0.61486737  0.51768572    -0.19400
C2267       C  0.65081028  0.61487972  0.98392391    -0.19400
C2268       C  0.65080844  0.61486804  0.51768932    -0.19400
C2269       C  0.76559904  0.57674492  0.89844873    -0.20400
C2270       C  0.73081145  0.57674318  0.89845087    -0.20400
C2271       C  0.76558800  0.57666565  0.60311309    -0.20400
C2272       C  0.73080091  0.57667273  0.60311599    -0.20400
C2273       C  0.80865179  0.59088388  0.94108591    -0.15800
C2274       C  0.80864345  0.59082263  0.56048673    -0.15800
C2275       C  0.68775613  0.59084172  0.56049526    -0.15800
C2276       C  0.68776166  0.59088047  0.94109070    -0.15800
H2277       H  0.86512601  0.62524404  0.96848616     0.17100
H2278       H  0.86512334  0.62520791  0.53313388     0.17100
H2279       H  0.63129176  0.62523490  0.96848945     0.17100
H2280       H  0.63128813  0.62521307  0.53313566     0.17100
H2281       H  0.78170436  0.57158087  0.87751489     0.15400
H2282       H  0.71470508  0.57157751  0.87751900     0.15400
H2283       H  0.78169164  0.57149682  0.62404240     0.15400
H2284       H  0.71469331  0.57150952  0.62404775     0.15400
H2285       H  0.77701504  0.57491569  0.50077427     0.28700
H2286       H  0.71938339  0.57491901  0.50078095     0.28700
C2287       C  0.59543914  0.90134031  0.90161325     0.00000
N2288       N  0.99824868  0.79898222  0.90689371    -0.34100
N2289       N  0.94563900  0.74981484  0.90556420    -0.54600
N2290       N  0.99824477  0.70067661  0.90688746    -0.34100
N2291       N  0.55085625  0.74983983  0.90555428    -0.54600
C2292       C  0.97105629  0.81620786  0.89690794     0.29500
C2293       C  0.52543970  0.81621995  0.89690251     0.29500
C2294       C  0.97105433  0.68343740  0.89689619     0.29500
C2295       C  0.52543590  0.68345186  0.89688862     0.29500
C2296       C  0.92673745  0.77661101  0.91222178     0.38100
C2297       C  0.92673765  0.72301381  0.91222328     0.38100
C2298       C  0.56975962  0.77664240  0.91220783     0.38100
C2299       C  0.56975527  0.72304513  0.91221093     0.38100
C2300       C  0.98106795  0.84426532  0.87985630    -0.19400
C2301       C  0.51542600  0.84427307  0.87985296    -0.19400
C2302       C  0.98106626  0.65538534  0.87983078    -0.19400
C2303       C  0.51542461  0.65539498  0.87982507    -0.19400
C2304       C  0.89512964  0.76692567  0.92287427    -0.20400
C2305       C  0.89513016  0.73269069  0.92287618    -0.20400
C2306       C  0.60136718  0.76696785  0.92285521    -0.20400
C2307       C  0.60136386  0.73273255  0.92285862    -0.20400
C2308       C  0.93776876  0.80909318  0.90600170    -0.15800
C2309       C  0.55872761  0.80912024  0.90599043    -0.15800
C2310       C  0.55871965  0.69056183  0.90599210    -0.15800
C2311       C  0.93777035  0.69053388  0.90600328    -0.15800
H2312       H  0.96530782  0.86310954  0.86899430     0.17100
H2313       H  0.53118482  0.86312449  0.86898830     0.17100
H2314       H  0.96530589  0.63653267  0.86896465     0.17100
H2315       H  0.53118545  0.63655100  0.86895319     0.17100
H2316       H  0.87424619  0.78277494  0.92933326     0.15400
H2317       H  0.87424733  0.71683579  0.92933625     0.15400
H2318       H  0.62225190  0.78282413  0.92930987     0.15400
H2319       H  0.62224581  0.71688444  0.92931538     0.15400
H2320       H  0.99824932  0.77845030  0.92237757     0.28700
H2321       H  0.99824504  0.72120594  0.92238384     0.28700
C2322       C  0.59539264  0.59834346  0.90162639     0.00000
N2323       N  0.58894853  0.99982124  0.70114773    -0.34100
N2324       N  0.59050241  0.55142537  0.75079893    -0.54600
N2325       N  0.58898440  0.99983142  0.80044404    -0.34100
N2326       N  0.59055165  0.94822757  0.75079335    -0.54600
C2327       C  0.59832228  0.52658314  0.68349077     0.29500
C2328       C  0.59834408  0.97306427  0.68348927     0.29500
C2329       C  0.59836827  0.52659942  0.81809561     0.29500
C2330       C  0.59839185  0.97308063  0.81809298     0.29500
C2331       C  0.58463719  0.57034299  0.72397094     0.38100
C2332       C  0.58464863  0.57034758  0.77763502     0.38100
C2333       C  0.58469740  0.92929782  0.72396227     0.38100
C2334       C  0.58471610  0.92930402  0.77762577     0.38100
C2335       C  0.61418151  0.51669827  0.65456227    -0.19400
C2336       C  0.61419573  0.98295666  0.65456161    -0.19400
C2337       C  0.61424876  0.51672538  0.84701000    -0.19400
C2338       C  0.61426235  0.98298297  0.84700900    -0.19400
C2339       C  0.57540701  0.60188478  0.73369724    -0.20400
C2340       C  0.57541288  0.60188733  0.76792199    -0.20400
C2341       C  0.57549434  0.89774701  0.73368250    -0.20400
C2342       C  0.57550611  0.89775100  0.76790718    -0.20400
C2343       C  0.59022565  0.55949541  0.69129352    -0.15800
C2344       C  0.59026834  0.94014664  0.69128666    -0.15800
C2345       C  0.59030905  0.94016094  0.81029883    -0.15800
C2346       C  0.59025356  0.55950655  0.81030639    -0.15800
H2347       H  0.62445338  0.53211967  0.63522238     0.17100
H2348       H  0.62448005  0.96753935  0.63522115     0.17100
H2349       H  0.62453131  0.53215503  0.86634293     0.17100
H2350       H  0.62455657  0.96757147  0.86634110     0.17100
H2351       H  0.56988757  0.62272498  0.71785895     0.15400
H2352       H  0.56989963  0.62273012  0.78376872     0.15400
H2353       H  0.56998847  0.87689752  0.71784017     0.15400
H2354       H  0.57001125  0.87690521  0.78375004     0.15400
H2355       H  0.57441098  0.99981567  0.72252580     0.28700
H2356       H  0.57443019  0.99981915  0.77907917     0.28700
C2357       C  0.59539321  0.59833162  0.59998917     0.00000
C2358       C  0.59540013  0.90131117  0.59996608     0.00000
N2359       N  0.99819729  0.79894754  0.59472107    -0.34100
N2360       N  0.94558506  0.74978396  0.59604628    -0.54600
N2361       N  0.99819340  0.70064160  0.59469321    -0.34100
N2362       N  0.55080281  0.74980895  0.59603155    -0.54600
C2363       C  0.97100614  0.81617063  0.60472260     0.29500
C2364       C  0.52538792  0.81618510  0.60471478     0.29500
C2365       C  0.97100246  0.68340166  0.60468123     0.29500
C2366       C  0.52538584  0.68341376  0.60467558     0.29500
C2367       C  0.92668640  0.77658004  0.58939393     0.38100
C2368       C  0.92668159  0.72298269  0.58938731     0.38100
C2369       C  0.56970514  0.77661131  0.58938078     0.38100
C2370       C  0.56970581  0.72301411  0.58937260     0.38100
C2371       C  0.98101739  0.84422487  0.62179055    -0.19400
C2372       C  0.51537613  0.84423456  0.62178469    -0.19400
C2373       C  0.98101640  0.65534508  0.62172477    -0.19400
C2374       C  0.51537399  0.65535278  0.62172130    -0.19400
C2375       C  0.89507788  0.76689479  0.57874401    -0.20400
C2376       C  0.89507421  0.73265947  0.57874146    -0.20400
C2377       C  0.60131468  0.76693659  0.57873166    -0.20400
C2378       C  0.60131555  0.73270164  0.57872762    -0.20400
C2379       C  0.93772269  0.80906242  0.59561654    -0.15800
C2380       C  0.55867176  0.80909004  0.59560573    -0.15800
C2381       C  0.55867425  0.69053078  0.59558645    -0.15800
C2382       C  0.93771386  0.69050340  0.59559727    -0.15800
H2383       H  0.96525609  0.86306718  0.63266481     0.17100
H2384       H  0.53113700  0.86308566  0.63265310     0.17100
H2385       H  0.96525817  0.63649181  0.63258680     0.17100
H2386       H  0.53113351  0.63650660  0.63258060     0.17100
H2387       H  0.87419639  0.78274423  0.57228901     0.15400
H2388       H  0.87418975  0.71680452  0.57228276     0.15400
H2389       H  0.62219897  0.78279274  0.57227914     0.15400
H2390       H  0.62220063  0.71685376  0.57227036     0.15400
H2391       H  0.99819680  0.77842095  0.57922110     0.28700
H2392       H  0.99819255  0.72117740  0.57921446     0.28700
C2393       C  0.58986956  0.86580502  0.59439401    -0.10700
C2394       C  0.58069302  0.83739432  0.59322471    -0.12300
C2395       C  0.58988776  0.63383710  0.59441555    -0.10700
C2396       C  0.58070967  0.66224250  0.59322823    -0.12300
C2397       C  0.58992268  0.90771511  0.63536707    -0.10700
C2398       C  0.58857262  0.91780533  0.66343210    -0.12300
C2399       C  0.58853938  0.58183641  0.66344659    -0.10700
C2400       C  0.58990467  0.59193369  0.63538833    -0.12300
C2401       C  0.58990676  0.59194115  0.86622618    -0.10700
C2402       C  0.58855256  0.58184592  0.83816283    -0.12300
C2403       C  0.58073584  0.66226397  0.90837742    -0.10700
C2404       C  0.58989151  0.63385058  0.90720605    -0.12300
C2405       C  0.58997339  0.90773890  0.86621292    -0.10700
C2406       C  0.58862329  0.91782781  0.83815180    -0.12300
C2407       C  0.58992787  0.86583221  0.90717780    -0.10700
C2408       C  0.58075624  0.83742088  0.90835561    -0.12300
C2409       C  0.65932147  0.58927642  0.58270326    -0.10700
C2410       C  0.63079479  0.59120390  0.59269159    -0.12300
C2411       C  0.65932491  0.58930588  0.91889028    -0.10700
C2412       C  0.63079515  0.59122146  0.90891387    -0.12300
C2413       C  0.91568415  0.66220313  0.59323261    -0.10700
C2414       C  0.90651421  0.63379117  0.59441368    -0.12300
C2415       C  0.86560676  0.59114831  0.59267325    -0.10700
C2416       C  0.83707928  0.58923338  0.58268656    -0.12300
C2417       C  0.90782418  0.58179956  0.66344493    -0.10700
C2418       C  0.90647338  0.59188782  0.63538343    -0.12300
C2419       C  0.90657319  0.63381879  0.90721024    -0.10700
C2420       C  0.91574818  0.66222999  0.90838400    -0.12300
C2421       C  0.86563510  0.59120113  0.90892427    -0.10700
C2422       C  0.83709741  0.58929708  0.91889132    -0.12300
C2423       C  0.90652416  0.59191299  0.86623086    -0.10700
C2424       C  0.90787367  0.58182286  0.83816565    -0.12300
C2425       C  0.63081028  0.90842014  0.59267197    -0.10700
C2426       C  0.65934735  0.91032414  0.58270349    -0.12300
C2427       C  0.65936561  0.91038542  0.91891162    -0.10700
C2428       C  0.63083856  0.90847158  0.90892412    -0.12300
C2429       C  0.90789356  0.91777900  0.66343495    -0.10700
C2430       C  0.90653767  0.90768454  0.63537149    -0.12300
C2431       C  0.90655221  0.86577468  0.59439437    -0.10700
C2432       C  0.91570837  0.83736134  0.59322767    -0.12300
C2433       C  0.83711951  0.91032562  0.58270646    -0.10700
C2434       C  0.86564919  0.90840604  0.59268306    -0.12300
C2435       C  0.86564956  0.90842206  0.90890518    -0.10700
C2436       C  0.83712281  0.91035262  0.91889317    -0.12300
C2437       C  0.90790554  0.91778772  0.83815008    -0.10700
C2438       C  0.90653968  0.90769054  0.86620824    -0.12300
C2439       C  0.91573538  0.83738249  0.90836368    -0.10700
C2440       C  0.90655666  0.86578771  0.90717975    -0.12300
loop_ 
_geom_bond_atom_site_label_1 
_geom_bond_atom_site_label_2 
_geom_bond_distance 
_geom_bond_site_symmetry_2 
_ccdc_geom_bond_type 
N1            N2   1.328       .  A
N1            N7   1.320       .  A
N1        Mn1555   2.244   1_455  S
N2            C9   1.360       .  A
N3            N5   1.320       .  A
N3            N4   1.327       .  A
N3        Mn1239   2.241       .  S
N4           C10   1.359       .  A
N5            N6   1.328       .  A
N5         Mn335   2.244       .  S
N6           C10   1.360       .  A
N7            N8   1.327       .  A
N7          Mn19   2.241   1_455  S
N8            C9   1.359       .  A
C9          C223   1.540       .  S
C10          C47   1.540       .  S
N11          N17   1.320       .  A
N11          N12   1.328       .  A
N11       Mn1261   2.244       .  S
N12          C20   1.360       .  A
N13          N14   1.327       .  A
N13          N15   1.320       .  A
N13        Mn629   2.241   1_445  S
N14          C21   1.359       .  A
N15          N16   1.328       .  A
N15         Mn41   2.244   1_455  S
N16          C21   1.360       .  A
N17          N18   1.327       .  A
N17       Mn1849   2.241   1_545  S
N18          C20   1.359       .  A
Mn19       N1223   2.241       .  S
Mn19        N623   2.241   1_655  S
Mn19       N1847   2.241       .  S
Mn19       Cl653   2.575       .  S
C20         C117   1.540       .  S
C21         C222   1.540       .  S
N22          N23   1.328       .  A
N22          N28   1.320       .  A
N22         Mn30   2.244       .  S
N23          C31   1.360       .  A
N24          N26   1.320       .  A
N24          N25   1.327       .  A
N24       Mn1872   2.241   1_455  S
N25          C32   1.359       .  A
N26          N27   1.328       .  A
N26       Mn1250   2.244   1_455  S
N27          C32   1.360       .  A
N28          N29   1.327       .  A
N28        Mn652   2.241       .  S
N29          C31   1.359       .  A
Mn30       N1526   2.244       .  S
Mn30        N310   2.244       .  S
Mn30       N1246   2.244       .  S
Mn30      Cl2178   2.579       .  S
C31          C46   1.540       .  S
C32         C152   1.540       .  S
N33          N34   1.328       .  A
N33          N39   1.320       .  A
N33        Mn346   2.244   1_455  S
N34          C44   1.360       .  A
N35          N36   1.327       .  A
N35          N37   1.320       .  A
N35         Mn42   2.241   1_545  S
N36          C45   1.359       .  A
N37          N38   1.328       .  A
N37       Mn1566   2.244       .  S
N38          C45   1.360       .  A
N39          N40   1.327       .  A
N39       Mn1262   2.241   1_445  S
N40          C44   1.359       .  A
Mn41       N1231   2.244       .  S
Mn41        N338   2.244   1_654  S
Mn41       N1562   2.244   1_554  S
Mn41        Cl43   2.579   1_545  S
Mn42       N1854   2.241       .  S
Mn42        N638   2.241       .  S
Mn42       N1259   2.241   1_565  S
Mn42      Cl1568   2.575       .  S
Cl43       Mn629   2.575       .  S
Cl43      Mn2165   2.579       .  S
Cl43      Mn1567   2.575   1_554  S
C44         C187   1.540       .  S
C45          C82   1.540       .  S
C46         C300   1.468       .  S
C46         C303   1.471       .  S
C46         C305   1.472       .  S
C47         C295   1.471       .  S
C47         C296   1.472       .  S
C47         C299   1.468       .  S
N48          C53   1.350       .  A
N48         C357   1.350   1_554  A
N48          H80   1.041       .  S
N49          C56   1.349       .  A
N49          C57   1.349       .  A
N50          C55   1.350       .  A
N50         C359   1.350   1_554  A
N50          H81   1.041       .  S
N51          C58   1.349       .  A
N51          C59   1.349       .  A
C52         N353   1.350       .  A
C52          C60   1.388       .  A
C52          C68   1.406       .  A
C53          C69   1.406       .  A
C53          C61   1.388       .  A
C54         N355   1.350       .  A
C54          C62   1.388       .  A
C54          C71   1.406       .  A
C55          C70   1.406       .  A
C55          C63   1.388       .  A
C56          C68   1.410       .  A
C56          C64   1.386       .  A
C57          C71   1.410       .  A
C57          C65   1.386       .  A
C58          C66   1.386       .  A
C58          C69   1.410       .  A
C59          C67   1.386       .  A
C59          C70   1.410       .  A
C60         C366   1.366       .  A
C60          H72   1.081       .  S
C61         C365   1.366   1_554  A
C61          H73   1.081       .  S
C62         C368   1.366       .  A
C62          H74   1.081       .  S
C63         C367   1.366   1_554  A
C63          H75   1.081       .  S
C64          C65   1.385       .  A
C64          H76   1.082       .  S
C65          H77   1.082       .  S
C66          C67   1.385       .  A
C66          H78   1.082       .  S
C67          H79   1.082       .  S
C68         C301   1.446       .  S
C69         C298   1.446       .  S
C70         C291   1.446       .  S
C71         C292   1.446       .  S
C82         C284   1.472       .  S
C82         C286   1.468       .  S
C82         C288   1.471       .  S
N83          C87   1.351       .  A
N83         C698   1.351       .  A
N83         H115   1.040       .  S
N84          C91   1.349       .  A
N84          C92   1.349       .  A
N85          C89   1.351       .  A
N85         C700   1.351       .  A
N85         H116   1.040       .  S
N86          C93   1.349       .  A
N86          C94   1.349       .  A
C87          C95   1.388       .  A
C87         C103   1.407       .  A
C88         N693   1.351   1_545  A
C88         C104   1.407       .  A
C88          C96   1.388       .  A
C89          C97   1.388       .  A
C89         C106   1.407       .  A
C90         N695   1.351   1_545  A
C90         C105   1.407       .  A
C90          C98   1.388       .  A
C91         C103   1.410       .  A
C91          C99   1.386       .  A
C92         C106   1.410       .  A
C92         C100   1.386       .  A
C93         C101   1.386       .  A
C93         C104   1.410       .  A
C94         C102   1.386       .  A
C94         C105   1.410       .  A
C95         C706   1.367       .  A
C95         H107   1.081       .  S
C96         C705   1.367   1_545  A
C96         H108   1.081       .  S
C97         C708   1.367       .  A
C97         H109   1.081       .  S
C98         C707   1.367   1_545  A
C98         H110   1.081       .  S
C99         C100   1.384       .  A
C99         H111   1.082       .  S
C100        H112   1.082       .  S
C101        C102   1.384       .  A
C101        H113   1.082       .  S
C102        H114   1.082       .  S
C103        C302   1.447       .  S
C104        C289   1.447       .  S
C105        C282   1.447       .  S
C106        C294   1.447       .  S
C117        C279   1.472       .  S
C117        C280   1.468       .  S
C117        C283   1.471       .  S
N118        C123   1.350       .  A
N118        C427   1.350   1_554  A
N118        H150   1.041       .  S
N119        C126   1.349       .  A
N119        C127   1.349       .  A
N120        C125   1.350       .  A
N120        C429   1.350   1_554  A
N120        H151   1.041       .  S
N121        C128   1.349       .  A
N121        C129   1.349       .  A
C122        N423   1.350       .  A
C122        C130   1.388       .  A
C122        C138   1.406       .  A
C123        C139   1.406       .  A
C123        C131   1.388       .  A
C124        N425   1.350       .  A
C124        C132   1.388       .  A
C124        C141   1.406       .  A
C125        C140   1.406       .  A
C125        C133   1.388       .  A
C126        C138   1.410       .  A
C126        C134   1.386       .  A
C127        C141   1.410       .  A
C127        C135   1.386       .  A
C128        C136   1.386       .  A
C128        C139   1.410       .  A
C129        C137   1.386       .  A
C129        C140   1.410       .  A
C130        C436   1.366       .  A
C130        H142   1.081       .  S
C131        C435   1.366   1_554  A
C131        H143   1.081       .  S
C132        C438   1.366       .  A
C132        H144   1.081       .  S
C133        C437   1.366   1_554  A
C133        H145   1.081       .  S
C134        C135   1.385       .  A
C134        H146   1.082       .  S
C135        H147   1.082       .  S
C136        C137   1.385       .  A
C136        H148   1.082       .  S
C137        H149   1.082       .  S
C138        C287   1.446       .  S
C139        C281   1.446       .  S
C140        C274   1.446       .  S
C141        C276   1.446       .  S
C152        C270   1.471       .  S
C152        C272   1.472       .  S
C152        C293   1.468       .  S
N153        C157   1.350       .  A
N153       C1378   1.350       .  A
N153        H185   1.041       .  S
N154        C161   1.348       .  A
N154        C162   1.348       .  A
N155        C159   1.350       .  A
N155       C1380   1.350       .  A
N155        H186   1.041       .  S
N156        C163   1.348       .  A
N156        C164   1.348       .  A
C157        C165   1.388       .  A
C157        C173   1.405       .  A
C158       N1373   1.350   1_455  A
C158        C174   1.405       .  A
C158        C166   1.388       .  A
C159        C167   1.388       .  A
C159        C176   1.405       .  A
C160       N1375   1.350   1_455  A
C160        C175   1.405       .  A
C160        C168   1.388       .  A
C161        C173   1.410       .  A
C161        C169   1.386       .  A
C162        C176   1.410       .  A
C162        C170   1.386       .  A
C163        C171   1.386       .  A
C163        C174   1.410       .  A
C164        C172   1.386       .  A
C164        C175   1.410       .  A
C165       C1386   1.367       .  A
C165        H177   1.081       .  S
C166       C1385   1.367   1_455  A
C166        H178   1.081       .  S
C167       C1388   1.368       .  A
C167        H179   1.081       .  S
C168       C1387   1.368   1_455  A
C168        H180   1.081       .  S
C169        C170   1.387       .  A
C169        H181   1.082       .  S
C170        H182   1.082       .  S
C171        C172   1.387       .  A
C171        H183   1.082       .  S
C172        H184   1.082       .  S
C173        C304   1.446       .  S
C174        C273   1.446       .  S
C175        C268   1.446       .  S
C176        C285   1.446       .  S
C187        C266   1.471       .  S
C187        C269   1.472       .  S
C187        C277   1.468       .  S
N188        C193   1.351       .  A
N188        C802   1.351       .  A
N188        H220   1.040       .  S
N189        C196   1.349       .  A
N189        C197   1.349       .  A
N190        C195   1.351       .  A
N190        C804   1.351       .  A
N190        H221   1.040       .  S
N191        C198   1.349       .  A
N191        C199   1.349       .  A
C192        N798   1.351   1_545  A
C192        C200   1.388       .  A
C192        C208   1.407       .  A
C193        C209   1.407       .  A
C193        C201   1.388       .  A
C194        N800   1.351   1_545  A
C194        C202   1.388       .  A
C194        C211   1.407       .  A
C195        C210   1.407       .  A
C195        C203   1.388       .  A
C196        C208   1.410       .  A
C196        C204   1.386       .  A
C197        C211   1.410       .  A
C197        C205   1.386       .  A
C198        C206   1.386       .  A
C198        C209   1.410       .  A
C199        C207   1.386       .  A
C199        C210   1.410       .  A
C200        C811   1.367   1_545  A
C200        H212   1.081       .  S
C201        C810   1.367       .  A
C201        H213   1.081       .  S
C202        C813   1.367   1_545  A
C202        H214   1.081       .  S
C203        C812   1.367       .  A
C203        H215   1.081       .  S
C204        C205   1.384       .  A
C204        H216   1.082       .  S
C205        H217   1.082       .  S
C206        C207   1.384       .  A
C206        H218   1.082       .  S
C207        H219   1.082       .  S
C208        C264   1.447       .  S
C209        C263   1.447       .  S
C210        C271   1.447       .  S
C211        C267   1.447       .  S
C222        C260   1.472       .  S
C222        C265   1.471       .  S
C222        C275   1.468       .  S
C223        C258   1.472       .  S
C223        C262   1.471       .  S
C223        C290   1.468       .  S
N224        C228   1.350       .  A
N224       C1449   1.350       .  A
N224        H256   1.041       .  S
N225        C232   1.348       .  A
N225        C233   1.348       .  A
N226        C230   1.350       .  A
N226       C1451   1.350       .  A
N226        H257   1.041       .  S
N227        C234   1.348       .  A
N227        C235   1.348       .  A
C228        C236   1.388       .  A
C228        C244   1.405       .  A
C229       N1444   1.350   1_455  A
C229        C245   1.405       .  A
C229        C237   1.388       .  A
C230        C238   1.388       .  A
C230        C247   1.405       .  A
C231       N1446   1.350   1_455  A
C231        C246   1.405       .  A
C231        C239   1.388       .  A
C232        C244   1.410       .  A
C232        C240   1.386       .  A
C233        C247   1.410       .  A
C233        C241   1.386       .  A
C234        C242   1.386       .  A
C234        C245   1.410       .  A
C235        C243   1.386       .  A
C235        C246   1.410       .  A
C236       C1457   1.368       .  A
C236        H248   1.081       .  S
C237       C1456   1.368   1_455  A
C237        H249   1.081       .  S
C238       C1459   1.367       .  A
C238        H250   1.081       .  S
C239       C1458   1.367   1_455  A
C239        H251   1.081       .  S
C240        C241   1.387       .  A
C240        H252   1.082       .  S
C241        H253   1.082       .  S
C242        C243   1.387       .  A
C242        H254   1.082       .  S
C243        H255   1.082       .  S
C244        C297   1.446       .  S
C245        C259   1.446       .  S
C246        C261   1.446       .  S
C247        C278   1.446       .  S
C258        C259   1.208       .  T
C260        C261   1.208       .  T
C262        C263   1.208       .  T
C264        C265   1.208       .  T
C266        C267   1.208       .  T
C268        C269   1.208       .  T
C270        C271   1.208       .  T
C272        C273   1.208       .  T
C274        C275   1.208       .  T
C276        C277   1.208       .  T
C278        C279   1.208       .  T
C280        C281   1.208       .  T
C282        C283   1.208       .  T
C284        C285   1.208       .  T
C286        C287   1.208       .  T
C288        C289   1.208       .  T
C290        C291   1.208       .  T
C292        C293   1.208       .  T
C294        C295   1.208       .  T
C296        C297   1.208       .  T
C298        C299   1.208       .  T
C300        C301   1.208       .  T
C302        C303   1.208       .  T
C304        C305   1.208       .  T
N306        N307   1.328       .  A
N306        N312   1.320       .  A
N306      Mn1250   2.244   1_455  S
N307        C314   1.360       .  A
N308        N310   1.320       .  A
N308        N309   1.327       .  A
N308      Mn1544   2.241       .  S
N309        C315   1.359       .  A
N310        N311   1.328       .  A
N311        C315   1.360       .  A
N312        N313   1.327       .  A
N312       Mn324   2.241   1_455  S
N313        C314   1.359       .  A
C314        C528   1.540       .  S
C315        C352   1.540       .  S
N316        N322   1.320       .  A
N316        N317   1.328       .  A
N316      Mn1566   2.244       .  S
N317        C325   1.360       .  A
N318        N319   1.327       .  A
N318        N320   1.320       .  A
N318       Mn934   2.241   1_445  S
N319        C326   1.359       .  A
N320        N321   1.328       .  A
N320       Mn346   2.244   1_455  S
N321        C326   1.360       .  A
N322        N323   1.327       .  A
N322      Mn2154   2.241   1_545  S
N323        C325   1.359       .  A
Mn324      N1528   2.241       .  S
Mn324       N928   2.241   1_655  S
Mn324      N2152   2.241       .  S
Mn324      Cl958   2.575       .  S
C325        C422   1.540       .  S
C326        C527   1.540       .  S
N327        N328   1.328       .  A
N327        N333   1.320       .  A
N327       Mn335   2.244   1_556  S
N328        C336   1.360       .  A
N329        N331   1.320       .  A
N329        N330   1.327       .  A
N329      Mn2177   2.241   1_455  S
N330        C337   1.359       .  A
N331        N332   1.328       .  A
N331      Mn1555   2.244   1_456  S
N332        C337   1.360       .  A
N333        N334   1.327       .  A
N333       Mn957   2.241       .  S
N334        C336   1.359       .  A
Mn335      N1221   2.244       .  S
Mn335      N1551   2.244   1_554  S
Mn335     Cl1873   2.579       .  S
C336        C351   1.540       .  S
C337        C457   1.540       .  S
N338        N339   1.328       .  A
N338        N344   1.320       .  A
N339        C349   1.360       .  A
N340        N341   1.327       .  A
N340        N342   1.320       .  A
N340       Mn347   2.241   1_545  S
N341        C350   1.359       .  A
N342        N343   1.328       .  A
N342      Mn1261   2.244   1_556  S
N343        C350   1.360       .  A
N344        N345   1.327       .  A
N344      Mn1567   2.241   1_445  S
N345        C349   1.359       .  A
Mn346      N1536   2.244       .  S
Mn346      N1257   2.244       .  S
Mn346      Cl348   2.579   1_545  S
Mn347      N2159   2.241       .  S
Mn347       N943   2.241       .  S
Mn347      N1564   2.241   1_565  S
Mn347     Cl1263   2.575   1_556  S
Cl348      Mn934   2.575       .  S
Cl348     Mn1860   2.579       .  S
Cl348     Mn1262   2.575       .  S
C349        C492   1.540       .  S
C350        C387   1.540       .  S
C351        C605   1.468       .  S
C351        C608   1.471       .  S
C351        C610   1.472       .  S
C352        C600   1.471       .  S
C352        C601   1.472       .  S
C352        C604   1.468       .  S
N353        C358   1.350       .  A
N353        H385   1.041       .  S
N354        C361   1.349       .  A
N354        C362   1.349       .  A
N355        C360   1.350       .  A
N355        H386   1.041       .  S
N356        C363   1.349       .  A
N356        C364   1.349       .  A
C357        C365   1.388       .  A
C357        C373   1.406       .  A
C358        C374   1.406       .  A
C358        C366   1.388       .  A
C359        C367   1.388       .  A
C359        C376   1.406       .  A
C360        C375   1.406       .  A
C360        C368   1.388       .  A
C361        C373   1.410       .  A
C361        C369   1.386       .  A
C362        C376   1.410       .  A
C362        C370   1.386       .  A
C363        C371   1.386       .  A
C363        C374   1.410       .  A
C364        C372   1.386       .  A
C364        C375   1.410       .  A
C365        H377   1.081       .  S
C366        H378   1.081       .  S
C367        H379   1.081       .  S
C368        H380   1.081       .  S
C369        C370   1.385       .  A
C369        H381   1.082       .  S
C370        H382   1.082       .  S
C371        C372   1.385       .  A
C371        H383   1.082       .  S
C372        H384   1.082       .  S
C373        C606   1.446       .  S
C374        C603   1.446       .  S
C375        C596   1.446       .  S
C376        C597   1.446       .  S
C387        C589   1.472       .  S
C387        C591   1.468       .  S
C387        C593   1.471       .  S
N388       C1003   1.351       .  A
N388        C392   1.351       .  A
N388        H420   1.040       .  S
N389        C396   1.349       .  A
N389        C397   1.349       .  A
N390       C1005   1.351       .  A
N390        C394   1.351       .  A
N390        H421   1.040       .  S
N391        C398   1.349       .  A
N391        C399   1.349       .  A
C392        C400   1.388       .  A
C392        C408   1.407       .  A
C393        N998   1.351   1_545  A
C393        C409   1.407       .  A
C393        C401   1.388       .  A
C394        C402   1.388       .  A
C394        C411   1.407       .  A
C395       N1000   1.351   1_545  A
C395        C410   1.407       .  A
C395        C403   1.388       .  A
C396        C408   1.410       .  A
C396        C404   1.386       .  A
C397        C411   1.410       .  A
C397        C405   1.386       .  A
C398        C406   1.386       .  A
C398        C409   1.410       .  A
C399        C407   1.386       .  A
C399        C410   1.410       .  A
C400       C1011   1.367       .  A
C400        H412   1.081       .  S
C401       C1010   1.367   1_545  A
C401        H413   1.081       .  S
C402       C1013   1.367       .  A
C402        H414   1.081       .  S
C403       C1012   1.367   1_545  A
C403        H415   1.081       .  S
C404        C405   1.384       .  A
C404        H416   1.082       .  S
C405        H417   1.082       .  S
C406        C407   1.384       .  A
C406        H418   1.082       .  S
C407        H419   1.082       .  S
C408        C607   1.447       .  S
C409        C594   1.447       .  S
C410        C587   1.447       .  S
C411        C599   1.447       .  S
C422        C584   1.472       .  S
C422        C585   1.468       .  S
C422        C588   1.471       .  S
N423        C428   1.350       .  A
N423        H455   1.041       .  S
N424        C431   1.349       .  A
N424        C432   1.349       .  A
N425        C430   1.350       .  A
N425        H456   1.041       .  S
N426        C433   1.349       .  A
N426        C434   1.349       .  A
C427        C435   1.388       .  A
C427        C443   1.406       .  A
C428        C444   1.406       .  A
C428        C436   1.388       .  A
C429        C437   1.388       .  A
C429        C446   1.406       .  A
C430        C445   1.406       .  A
C430        C438   1.388       .  A
C431        C443   1.410       .  A
C431        C439   1.386       .  A
C432        C446   1.410       .  A
C432        C440   1.386       .  A
C433        C441   1.386       .  A
C433        C444   1.410       .  A
C434        C442   1.386       .  A
C434        C445   1.410       .  A
C435        H447   1.081       .  S
C436        H448   1.081       .  S
C437        H449   1.081       .  S
C438        H450   1.081       .  S
C439        C440   1.385       .  A
C439        H451   1.082       .  S
C440        H452   1.082       .  S
C441        C442   1.385       .  A
C441        H453   1.082       .  S
C442        H454   1.082       .  S
C443        C592   1.446       .  S
C444        C586   1.446       .  S
C445        C579   1.446       .  S
C446        C581   1.446       .  S
C457        C575   1.471       .  S
C457        C577   1.472       .  S
C457        C598   1.468       .  S
N458       C1683   1.350       .  A
N458        C462   1.350       .  A
N458        H490   1.041       .  S
N459        C466   1.348       .  A
N459        C467   1.348       .  A
N460       C1685   1.350       .  A
N460        C464   1.350       .  A
N460        H491   1.041       .  S
N461        C468   1.348       .  A
N461        C469   1.348       .  A
C462        C470   1.388       .  A
C462        C478   1.405       .  A
C463       N1678   1.350   1_455  A
C463        C479   1.405       .  A
C463        C471   1.388       .  A
C464        C472   1.388       .  A
C464        C481   1.405       .  A
C465       N1680   1.350   1_455  A
C465        C480   1.405       .  A
C465        C473   1.388       .  A
C466        C478   1.410       .  A
C466        C474   1.386       .  A
C467        C481   1.410       .  A
C467        C475   1.386       .  A
C468        C476   1.386       .  A
C468        C479   1.410       .  A
C469        C477   1.386       .  A
C469        C480   1.410       .  A
C470       C1691   1.367       .  A
C470        H482   1.081       .  S
C471       C1690   1.367   1_455  A
C471        H483   1.081       .  S
C472       C1693   1.368       .  A
C472        H484   1.081       .  S
C473       C1692   1.368   1_455  A
C473        H485   1.081       .  S
C474        C475   1.387       .  A
C474        H486   1.082       .  S
C475        H487   1.082       .  S
C476        C477   1.387       .  A
C476        H488   1.082       .  S
C477        H489   1.082       .  S
C478        C609   1.446       .  S
C479        C578   1.446       .  S
C480        C573   1.446       .  S
C481        C590   1.446       .  S
C492        C571   1.471       .  S
C492        C574   1.472       .  S
C492        C582   1.468       .  S
N493        C498   1.351       .  A
N493       C1107   1.351       .  A
N493        H525   1.040       .  S
N494        C501   1.349       .  A
N494        C502   1.349       .  A
N495        C500   1.351       .  A
N495       C1109   1.351       .  A
N495        H526   1.040       .  S
N496        C503   1.349       .  A
N496        C504   1.349       .  A
C497       N1103   1.351   1_545  A
C497        C505   1.388       .  A
C497        C513   1.407       .  A
C498        C514   1.407       .  A
C498        C506   1.388       .  A
C499       N1105   1.351   1_545  A
C499        C507   1.388       .  A
C499        C516   1.407       .  A
C500        C515   1.407       .  A
C500        C508   1.388       .  A
C501        C513   1.410       .  A
C501        C509   1.386       .  A
C502        C516   1.410       .  A
C502        C510   1.386       .  A
C503        C511   1.386       .  A
C503        C514   1.410       .  A
C504        C512   1.386       .  A
C504        C515   1.410       .  A
C505       C1116   1.367   1_545  A
C505        H517   1.081       .  S
C506       C1115   1.367       .  A
C506        H518   1.081       .  S
C507       C1118   1.367   1_545  A
C507        H519   1.081       .  S
C508       C1117   1.367       .  A
C508        H520   1.081       .  S
C509        C510   1.384       .  A
C509        H521   1.082       .  S
C510        H522   1.082       .  S
C511        C512   1.384       .  A
C511        H523   1.082       .  S
C512        H524   1.082       .  S
C513        C569   1.447       .  S
C514        C568   1.447       .  S
C515        C576   1.447       .  S
C516        C572   1.447       .  S
C527        C565   1.472       .  S
C527        C570   1.471       .  S
C527        C580   1.468       .  S
C528        C563   1.472       .  S
C528        C567   1.471       .  S
C528        C595   1.468       .  S
N529       C1754   1.350       .  A
N529        C533   1.350       .  A
N529        H561   1.041       .  S
N530        C537   1.348       .  A
N530        C538   1.348       .  A
N531       C1756   1.350       .  A
N531        C535   1.350       .  A
N531        H562   1.041       .  S
N532        C539   1.348       .  A
N532        C540   1.348       .  A
C533        C541   1.388       .  A
C533        C549   1.405       .  A
C534       N1749   1.350   1_455  A
C534        C550   1.405       .  A
C534        C542   1.388       .  A
C535        C543   1.388       .  A
C535        C552   1.405       .  A
C536       N1751   1.350   1_455  A
C536        C551   1.405       .  A
C536        C544   1.388       .  A
C537        C549   1.410       .  A
C537        C545   1.386       .  A
C538        C552   1.410       .  A
C538        C546   1.386       .  A
C539        C547   1.386       .  A
C539        C550   1.410       .  A
C540        C548   1.386       .  A
C540        C551   1.410       .  A
C541       C1762   1.368       .  A
C541        H553   1.081       .  S
C542       C1761   1.368   1_455  A
C542        H554   1.081       .  S
C543       C1764   1.367       .  A
C543        H555   1.081       .  S
C544       C1763   1.367   1_455  A
C544        H556   1.081       .  S
C545        C546   1.387       .  A
C545        H557   1.082       .  S
C546        H558   1.082       .  S
C547        C548   1.387       .  A
C547        H559   1.082       .  S
C548        H560   1.082       .  S
C549        C602   1.446       .  S
C550        C564   1.446       .  S
C551        C566   1.446       .  S
C552        C583   1.446       .  S
C563        C564   1.208       .  T
C565        C566   1.208       .  T
C567        C568   1.208       .  T
C569        C570   1.208       .  T
C571        C572   1.208       .  T
C573        C574   1.208       .  T
C575        C576   1.208       .  T
C577        C578   1.208       .  T
C579        C580   1.208       .  T
C581        C582   1.208       .  T
C583        C584   1.208       .  T
C585        C586   1.208       .  T
C587        C588   1.208       .  T
C589        C590   1.208       .  T
C591        C592   1.208       .  T
C593        C594   1.208       .  T
C595        C596   1.208       .  T
C597        C598   1.208       .  T
C599        C600   1.208       .  T
C601        C602   1.208       .  T
C603        C604   1.208       .  T
C605        C606   1.208       .  T
C607        C608   1.208       .  T
C609        C610   1.208       .  T
N611        N612   1.328       .  A
N611        N617   1.320       .  A
N611      Mn2165   2.244   1_455  S
N612        C619   1.360       .  A
N613        N615   1.320       .  A
N613        N614   1.327       .  A
N613      Mn1849   2.241       .  S
N614        C620   1.359       .  A
N615        N616   1.328       .  A
N615       Mn945   2.244       .  S
N616        C620   1.360       .  A
N617        N618   1.327       .  A
N617       Mn629   2.241   1_455  S
N618        C619   1.359       .  A
C619        C833   1.540       .  S
C620        C657   1.540       .  S
N621        N627   1.320       .  A
N621        N622   1.328       .  A
N621      Mn1871   2.244       .  S
N622        C630   1.360       .  A
N623        N624   1.327       .  A
N623        N625   1.320       .  A
N624        C631   1.359       .  A
N625        N626   1.328       .  A
N625       Mn651   2.244   1_455  S
N626        C631   1.360       .  A
N627        N628   1.327       .  A
N627      Mn1239   2.241       .  S
N628        C630   1.359       .  A
Mn629      N1833   2.241       .  S
Mn629      N1237   2.241   1_565  S
C630        C727   1.540       .  S
C631        C832   1.540       .  S
N632        N633   1.328       .  A
N632        N638   1.320       .  A
N632       Mn640   2.244       .  S
N633        C641   1.360       .  A
N634        N636   1.320       .  A
N634        N635   1.327       .  A
N634      Mn1262   2.241   1_455  S
N635        C642   1.359       .  A
N636        N637   1.328       .  A
N636      Mn1860   2.244   1_455  S
N637        C642   1.360       .  A
N638        N639   1.327       .  A
N639        C641   1.359       .  A
Mn640      N2136   2.244       .  S
Mn640       N920   2.244       .  S
Mn640      N1856   2.244       .  S
Mn640     Cl1568   2.579       .  S
C641        C656   1.540       .  S
C642        C762   1.540       .  S
N643        N644   1.328       .  A
N643        N649   1.320       .  A
N643       Mn956   2.244   1_455  S
N644        C654   1.360       .  A
N645        N646   1.327       .  A
N645        N647   1.320       .  A
N645       Mn652   2.241       .  S
N646        C655   1.359       .  A
N647        N648   1.328       .  A
N647      Mn2176   2.244       .  S
N648        C655   1.360       .  A
N649        N650   1.327       .  A
N649      Mn1872   2.241   1_455  S
N650        C654   1.359       .  A
Mn651      N1841   2.244       .  S
Mn651       N948   2.244   1_654  S
Mn651      N2172   2.244   1_554  S
Mn651      Cl653   2.579       .  S
Mn652      N1244   2.241       .  S
Mn652      N1869   2.241       .  S
Mn652     Cl2178   2.575       .  S
Cl653     Mn1555   2.579       .  S
Cl653     Mn2177   2.575   1_554  S
C654        C797   1.540       .  S
C655        C692   1.540       .  S
C656        C910   1.468       .  S
C656        C913   1.471       .  S
C656        C915   1.472       .  S
C657        C905   1.471       .  S
C657        C906   1.472       .  S
C657        C909   1.468       .  S
N658        C663   1.350       .  A
N658        C967   1.350   1_554  A
N658        H690   1.041       .  S
N659        C666   1.349       .  A
N659        C667   1.349       .  A
N660        C665   1.350       .  A
N660        C969   1.350   1_554  A
N660        H691   1.041       .  S
N661        C668   1.349       .  A
N661        C669   1.349       .  A
C662        N963   1.350       .  A
C662        C670   1.388       .  A
C662        C678   1.406       .  A
C663        C679   1.406       .  A
C663        C671   1.388       .  A
C664        N965   1.350       .  A
C664        C672   1.388       .  A
C664        C681   1.406       .  A
C665        C680   1.406       .  A
C665        C673   1.388       .  A
C666        C678   1.410       .  A
C666        C674   1.386       .  A
C667        C681   1.410       .  A
C667        C675   1.386       .  A
C668        C676   1.386       .  A
C668        C679   1.410       .  A
C669        C677   1.386       .  A
C669        C680   1.410       .  A
C670        C976   1.366       .  A
C670        H682   1.081       .  S
C671        C975   1.366   1_554  A
C671        H683   1.081       .  S
C672        C978   1.366       .  A
C672        H684   1.081       .  S
C673        C977   1.366   1_554  A
C673        H685   1.081       .  S
C674        C675   1.385       .  A
C674        H686   1.082       .  S
C675        H687   1.082       .  S
C676        C677   1.385       .  A
C676        H688   1.082       .  S
C677        H689   1.082       .  S
C678        C911   1.446       .  S
C679        C908   1.446       .  S
C680        C901   1.446       .  S
C681        C902   1.446       .  S
C692        C894   1.472       .  S
C692        C896   1.468       .  S
C692        C898   1.471       .  S
N693        C697   1.351       .  A
N693        H725   1.040       .  S
N694        C701   1.349       .  A
N694        C702   1.349       .  A
N695        C699   1.351       .  A
N695        H726   1.040       .  S
N696        C703   1.349       .  A
N696        C704   1.349       .  A
C697        C705   1.388       .  A
C697        C713   1.407       .  A
C698        C714   1.407       .  A
C698        C706   1.388       .  A
C699        C707   1.388       .  A
C699        C716   1.407       .  A
C700        C715   1.407       .  A
C700        C708   1.388       .  A
C701        C713   1.410       .  A
C701        C709   1.386       .  A
C702        C716   1.410       .  A
C702        C710   1.386       .  A
C703        C711   1.386       .  A
C703        C714   1.410       .  A
C704        C712   1.386       .  A
C704        C715   1.410       .  A
C705        H717   1.081       .  S
C706        H718   1.081       .  S
C707        H719   1.081       .  S
C708        H720   1.081       .  S
C709        C710   1.384       .  A
C709        H721   1.082       .  S
C710        H722   1.082       .  S
C711        C712   1.384       .  A
C711        H723   1.082       .  S
C712        H724   1.082       .  S
C713        C912   1.447       .  S
C714        C899   1.447       .  S
C715        C892   1.447       .  S
C716        C904   1.447       .  S
C727        C889   1.472       .  S
C727        C890   1.468       .  S
C727        C893   1.471       .  S
N728        C733   1.350       .  A
N728       C1037   1.350   1_554  A
N728        H760   1.041       .  S
N729        C736   1.349       .  A
N729        C737   1.349       .  A
N730        C735   1.350       .  A
N730       C1039   1.350   1_554  A
N730        H761   1.041       .  S
N731        C738   1.349       .  A
N731        C739   1.349       .  A
C732       N1033   1.350       .  A
C732        C740   1.388       .  A
C732        C748   1.406       .  A
C733        C749   1.406       .  A
C733        C741   1.388       .  A
C734       N1035   1.350       .  A
C734        C742   1.388       .  A
C734        C751   1.406       .  A
C735        C750   1.406       .  A
C735        C743   1.388       .  A
C736        C748   1.410       .  A
C736        C744   1.386       .  A
C737        C751   1.410       .  A
C737        C745   1.386       .  A
C738        C746   1.386       .  A
C738        C749   1.410       .  A
C739        C747   1.386       .  A
C739        C750   1.410       .  A
C740       C1046   1.366       .  A
C740        H752   1.081       .  S
C741       C1045   1.366   1_554  A
C741        H753   1.081       .  S
C742       C1048   1.366       .  A
C742        H754   1.081       .  S
C743       C1047   1.366   1_554  A
C743        H755   1.081       .  S
C744        C745   1.385       .  A
C744        H756   1.082       .  S
C745        H757   1.082       .  S
C746        C747   1.385       .  A
C746        H758   1.082       .  S
C747        H759   1.082       .  S
C748        C897   1.446       .  S
C749        C891   1.446       .  S
C750        C884   1.446       .  S
C751        C886   1.446       .  S
C762        C880   1.471       .  S
C762        C882   1.472       .  S
C762        C903   1.468       .  S
N763       C1988   1.350       .  A
N763        C767   1.350       .  A
N763        H795   1.041       .  S
N764        C771   1.348       .  A
N764        C772   1.348       .  A
N765       C1990   1.350       .  A
N765        C769   1.350       .  A
N765        H796   1.041       .  S
N766        C773   1.348       .  A
N766        C774   1.348       .  A
C767        C775   1.388       .  A
C767        C783   1.405       .  A
C768       N1983   1.350   1_455  A
C768        C784   1.405       .  A
C768        C776   1.388       .  A
C769        C777   1.388       .  A
C769        C786   1.405       .  A
C770       N1985   1.350   1_455  A
C770        C785   1.405       .  A
C770        C778   1.388       .  A
C771        C783   1.410       .  A
C771        C779   1.386       .  A
C772        C786   1.410       .  A
C772        C780   1.386       .  A
C773        C781   1.386       .  A
C773        C784   1.410       .  A
C774        C782   1.386       .  A
C774        C785   1.410       .  A
C775       C1996   1.367       .  A
C775        H787   1.081       .  S
C776       C1995   1.367   1_455  A
C776        H788   1.081       .  S
C777       C1998   1.368       .  A
C777        H789   1.081       .  S
C778       C1997   1.368   1_455  A
C778        H790   1.081       .  S
C779        C780   1.387       .  A
C779        H791   1.082       .  S
C780        H792   1.082       .  S
C781        C782   1.387       .  A
C781        H793   1.082       .  S
C782        H794   1.082       .  S
C783        C914   1.446       .  S
C784        C883   1.446       .  S
C785        C878   1.446       .  S
C786        C895   1.446       .  S
C797        C876   1.471       .  S
C797        C879   1.472       .  S
C797        C887   1.468       .  S
N798        C803   1.351       .  A
N798        H830   1.040       .  S
N799        C806   1.349       .  A
N799        C807   1.349       .  A
N800        C805   1.351       .  A
N800        H831   1.040       .  S
N801        C808   1.349       .  A
N801        C809   1.349       .  A
C802        C810   1.388       .  A
C802        C818   1.407       .  A
C803        C819   1.407       .  A
C803        C811   1.388       .  A
C804        C812   1.388       .  A
C804        C821   1.407       .  A
C805        C820   1.407       .  A
C805        C813   1.388       .  A
C806        C818   1.410       .  A
C806        C814   1.386       .  A
C807        C821   1.410       .  A
C807        C815   1.386       .  A
C808        C816   1.386       .  A
C808        C819   1.410       .  A
C809        C817   1.386       .  A
C809        C820   1.410       .  A
C810        H822   1.081       .  S
C811        H823   1.081       .  S
C812        H824   1.081       .  S
C813        H825   1.081       .  S
C814        C815   1.384       .  A
C814        H826   1.082       .  S
C815        H827   1.082       .  S
C816        C817   1.384       .  A
C816        H828   1.082       .  S
C817        H829   1.082       .  S
C818        C874   1.447       .  S
C819        C873   1.447       .  S
C820        C881   1.447       .  S
C821        C877   1.447       .  S
C832        C870   1.472       .  S
C832        C875   1.471       .  S
C832        C885   1.468       .  S
C833        C868   1.472       .  S
C833        C872   1.471       .  S
C833        C900   1.468       .  S
N834       C2059   1.350       .  A
N834        C838   1.350       .  A
N834        H866   1.041       .  S
N835        C842   1.348       .  A
N835        C843   1.348       .  A
N836       C2061   1.350       .  A
N836        C840   1.350       .  A
N836        H867   1.041       .  S
N837        C844   1.348       .  A
N837        C845   1.348       .  A
C838        C846   1.388       .  A
C838        C854   1.405       .  A
C839       N2054   1.350   1_455  A
C839        C855   1.405       .  A
C839        C847   1.388       .  A
C840        C848   1.388       .  A
C840        C857   1.405       .  A
C841       N2056   1.350   1_455  A
C841        C856   1.405       .  A
C841        C849   1.388       .  A
C842        C854   1.410       .  A
C842        C850   1.386       .  A
C843        C857   1.410       .  A
C843        C851   1.386       .  A
C844        C852   1.386       .  A
C844        C855   1.410       .  A
C845        C853   1.386       .  A
C845        C856   1.410       .  A
C846       C2067   1.368       .  A
C846        H858   1.081       .  S
C847       C2066   1.368   1_455  A
C847        H859   1.081       .  S
C848       C2069   1.367       .  A
C848        H860   1.081       .  S
C849       C2068   1.367   1_455  A
C849        H861   1.081       .  S
C850        C851   1.387       .  A
C850        H862   1.082       .  S
C851        H863   1.082       .  S
C852        C853   1.387       .  A
C852        H864   1.082       .  S
C853        H865   1.082       .  S
C854        C907   1.446       .  S
C855        C869   1.446       .  S
C856        C871   1.446       .  S
C857        C888   1.446       .  S
C868        C869   1.208       .  T
C870        C871   1.208       .  T
C872        C873   1.208       .  T
C874        C875   1.208       .  T
C876        C877   1.208       .  T
C878        C879   1.208       .  T
C880        C881   1.208       .  T
C882        C883   1.208       .  T
C884        C885   1.208       .  T
C886        C887   1.208       .  T
C888        C889   1.208       .  T
C890        C891   1.208       .  T
C892        C893   1.208       .  T
C894        C895   1.208       .  T
C896        C897   1.208       .  T
C898        C899   1.208       .  T
C900        C901   1.208       .  T
C902        C903   1.208       .  T
C904        C905   1.208       .  T
C906        C907   1.208       .  T
C908        C909   1.208       .  T
C910        C911   1.208       .  T
C912        C913   1.208       .  T
C914        C915   1.208       .  T
N916        N917   1.328       .  A
N916        N922   1.320       .  A
N916      Mn1860   2.244   1_455  S
N917        C924   1.360       .  A
N918        N920   1.320       .  A
N918        N919   1.327       .  A
N918      Mn2154   2.241       .  S
N919        C925   1.359       .  A
N920        N921   1.328       .  A
N921        C925   1.360       .  A
N922        N923   1.327       .  A
N922       Mn934   2.241   1_455  S
N923        C924   1.359       .  A
C924       C1138   1.540       .  S
C925        C962   1.540       .  S
N926        N932   1.320       .  A
N926        N927   1.328       .  A
N926      Mn2176   2.244       .  S
N927        C935   1.360       .  A
N928        N929   1.327       .  A
N928        N930   1.320       .  A
N929        C936   1.359       .  A
N930        N931   1.328       .  A
N930       Mn956   2.244   1_455  S
N931        C936   1.360       .  A
N932        N933   1.327       .  A
N932      Mn1544   2.241       .  S
N933        C935   1.359       .  A
Mn934      N2138   2.241       .  S
Mn934      N1542   2.241   1_565  S
C935       C1032   1.540       .  S
C936       C1137   1.540       .  S
N937        N938   1.328       .  A
N937        N943   1.320       .  A
N937       Mn945   2.244   1_556  S
N938        C946   1.360       .  A
N939        N941   1.320       .  A
N939        N940   1.327       .  A
N939      Mn1567   2.241   1_455  S
N940        C947   1.359       .  A
N941        N942   1.328       .  A
N941      Mn2165   2.244   1_456  S
N942        C947   1.360       .  A
N943        N944   1.327       .  A
N944        C946   1.359       .  A
Mn945      N1831   2.244       .  S
Mn945      N2161   2.244   1_554  S
Mn945     Cl1263   2.579       .  S
C946        C961   1.540       .  S
C947       C1067   1.540       .  S
N948        N949   1.328       .  A
N948        N954   1.320       .  A
N949        C959   1.360       .  A
N950        N951   1.327       .  A
N950        N952   1.320       .  A
N950       Mn957   2.241       .  S
N951        C960   1.359       .  A
N952        N953   1.328       .  A
N952      Mn1871   2.244   1_556  S
N953        C960   1.360       .  A
N954        N955   1.327       .  A
N954      Mn2177   2.241   1_455  S
N955        C959   1.359       .  A
Mn956      N2146   2.244       .  S
Mn956      N1867   2.244       .  S
Mn956      Cl958   2.579       .  S
Mn957      N1549   2.241       .  S
Mn957      N2174   2.241       .  S
Mn957     Cl1873   2.575   1_556  S
Cl958     Mn1250   2.579       .  S
Cl958     Mn1872   2.575       .  S
C959       C1102   1.540       .  S
C960        C997   1.540       .  S
C961       C1215   1.468       .  S
C961       C1218   1.471       .  S
C961       C1220   1.472       .  S
C962       C1210   1.471       .  S
C962       C1211   1.472       .  S
C962       C1214   1.468       .  S
N963        C968   1.350       .  A
N963        H995   1.041       .  S
N964        C971   1.349       .  A
N964        C972   1.349       .  A
N965        C970   1.350       .  A
N965        H996   1.041       .  S
N966        C973   1.349       .  A
N966        C974   1.349       .  A
C967        C975   1.388       .  A
C967        C983   1.406       .  A
C968        C984   1.406       .  A
C968        C976   1.388       .  A
C969        C977   1.388       .  A
C969        C986   1.406       .  A
C970        C985   1.406       .  A
C970        C978   1.388       .  A
C971        C983   1.410       .  A
C971        C979   1.386       .  A
C972        C986   1.410       .  A
C972        C980   1.386       .  A
C973        C981   1.386       .  A
C973        C984   1.410       .  A
C974        C982   1.386       .  A
C974        C985   1.410       .  A
C975        H987   1.081       .  S
C976        H988   1.081       .  S
C977        H989   1.081       .  S
C978        H990   1.081       .  S
C979        C980   1.385       .  A
C979        H991   1.082       .  S
C980        H992   1.082       .  S
C981        C982   1.385       .  A
C981        H993   1.082       .  S
C982        H994   1.082       .  S
C983       C1216   1.446       .  S
C984       C1213   1.446       .  S
C985       C1206   1.446       .  S
C986       C1207   1.446       .  S
C997       C1199   1.472       .  S
C997       C1201   1.468       .  S
C997       C1203   1.471       .  S
N998       C1002   1.351       .  A
N998       H1030   1.040       .  S
N999       C1006   1.349       .  A
N999       C1007   1.349       .  A
N1000      C1004   1.351       .  A
N1000      H1031   1.040       .  S
N1001      C1008   1.349       .  A
N1001      C1009   1.349       .  A
C1002      C1010   1.388       .  A
C1002      C1018   1.407       .  A
C1003      C1019   1.407       .  A
C1003      C1011   1.388       .  A
C1004      C1012   1.388       .  A
C1004      C1021   1.407       .  A
C1005      C1020   1.407       .  A
C1005      C1013   1.388       .  A
C1006      C1018   1.410       .  A
C1006      C1014   1.386       .  A
C1007      C1021   1.410       .  A
C1007      C1015   1.386       .  A
C1008      C1016   1.386       .  A
C1008      C1019   1.410       .  A
C1009      C1017   1.386       .  A
C1009      C1020   1.410       .  A
C1010      H1022   1.081       .  S
C1011      H1023   1.081       .  S
C1012      H1024   1.081       .  S
C1013      H1025   1.081       .  S
C1014      C1015   1.384       .  A
C1014      H1026   1.082       .  S
C1015      H1027   1.082       .  S
C1016      C1017   1.384       .  A
C1016      H1028   1.082       .  S
C1017      H1029   1.082       .  S
C1018      C1217   1.447       .  S
C1019      C1204   1.447       .  S
C1020      C1197   1.447       .  S
C1021      C1209   1.447       .  S
C1032      C1194   1.472       .  S
C1032      C1195   1.468       .  S
C1032      C1198   1.471       .  S
N1033      C1038   1.350       .  A
N1033      H1065   1.041       .  S
N1034      C1041   1.349       .  A
N1034      C1042   1.349       .  A
N1035      C1040   1.350       .  A
N1035      H1066   1.041       .  S
N1036      C1043   1.349       .  A
N1036      C1044   1.349       .  A
C1037      C1045   1.388       .  A
C1037      C1053   1.406       .  A
C1038      C1054   1.406       .  A
C1038      C1046   1.388       .  A
C1039      C1047   1.388       .  A
C1039      C1056   1.406       .  A
C1040      C1055   1.406       .  A
C1040      C1048   1.388       .  A
C1041      C1053   1.410       .  A
C1041      C1049   1.386       .  A
C1042      C1056   1.410       .  A
C1042      C1050   1.386       .  A
C1043      C1051   1.386       .  A
C1043      C1054   1.410       .  A
C1044      C1052   1.386       .  A
C1044      C1055   1.410       .  A
C1045      H1057   1.081       .  S
C1046      H1058   1.081       .  S
C1047      H1059   1.081       .  S
C1048      H1060   1.081       .  S
C1049      C1050   1.385       .  A
C1049      H1061   1.082       .  S
C1050      H1062   1.082       .  S
C1051      C1052   1.385       .  A
C1051      H1063   1.082       .  S
C1052      H1064   1.082       .  S
C1053      C1202   1.446       .  S
C1054      C1196   1.446       .  S
C1055      C1189   1.446       .  S
C1056      C1191   1.446       .  S
C1067      C1185   1.471       .  S
C1067      C1187   1.472       .  S
C1067      C1208   1.468       .  S
N1068      C2293   1.350       .  A
N1068      C1072   1.350       .  A
N1068      H1100   1.041       .  S
N1069      C1076   1.348       .  A
N1069      C1077   1.348       .  A
N1070      C2295   1.350       .  A
N1070      C1074   1.350       .  A
N1070      H1101   1.041       .  S
N1071      C1078   1.348       .  A
N1071      C1079   1.348       .  A
C1072      C1080   1.388       .  A
C1072      C1088   1.405       .  A
C1073      N2288   1.350   1_455  A
C1073      C1089   1.405       .  A
C1073      C1081   1.388       .  A
C1074      C1082   1.388       .  A
C1074      C1091   1.405       .  A
C1075      N2290   1.350   1_455  A
C1075      C1090   1.405       .  A
C1075      C1083   1.388       .  A
C1076      C1088   1.410       .  A
C1076      C1084   1.386       .  A
C1077      C1091   1.410       .  A
C1077      C1085   1.386       .  A
C1078      C1086   1.386       .  A
C1078      C1089   1.410       .  A
C1079      C1087   1.386       .  A
C1079      C1090   1.410       .  A
C1080      C2301   1.367       .  A
C1080      H1092   1.081       .  S
C1081      C2300   1.367   1_455  A
C1081      H1093   1.081       .  S
C1082      C2303   1.368       .  A
C1082      H1094   1.081       .  S
C1083      C2302   1.368   1_455  A
C1083      H1095   1.081       .  S
C1084      C1085   1.387       .  A
C1084      H1096   1.082       .  S
C1085      H1097   1.082       .  S
C1086      C1087   1.387       .  A
C1086      H1098   1.082       .  S
C1087      H1099   1.082       .  S
C1088      C1219   1.446       .  S
C1089      C1188   1.446       .  S
C1090      C1183   1.446       .  S
C1091      C1200   1.446       .  S
C1102      C1181   1.471       .  S
C1102      C1184   1.472       .  S
C1102      C1192   1.468       .  S
N1103      C1108   1.351       .  A
N1103      H1135   1.040       .  S
N1104      C1111   1.349       .  A
N1104      C1112   1.349       .  A
N1105      C1110   1.351       .  A
N1105      H1136   1.040       .  S
N1106      C1113   1.349       .  A
N1106      C1114   1.349       .  A
C1107      C1115   1.388       .  A
C1107      C1123   1.407       .  A
C1108      C1124   1.407       .  A
C1108      C1116   1.388       .  A
C1109      C1117   1.388       .  A
C1109      C1126   1.407       .  A
C1110      C1125   1.407       .  A
C1110      C1118   1.388       .  A
C1111      C1123   1.410       .  A
C1111      C1119   1.386       .  A
C1112      C1126   1.410       .  A
C1112      C1120   1.386       .  A
C1113      C1121   1.386       .  A
C1113      C1124   1.410       .  A
C1114      C1122   1.386       .  A
C1114      C1125   1.410       .  A
C1115      H1127   1.081       .  S
C1116      H1128   1.081       .  S
C1117      H1129   1.081       .  S
C1118      H1130   1.081       .  S
C1119      C1120   1.384       .  A
C1119      H1131   1.082       .  S
C1120      H1132   1.082       .  S
C1121      C1122   1.384       .  A
C1121      H1133   1.082       .  S
C1122      H1134   1.082       .  S
C1123      C1179   1.447       .  S
C1124      C1178   1.447       .  S
C1125      C1186   1.447       .  S
C1126      C1182   1.447       .  S
C1137      C1175   1.472       .  S
C1137      C1180   1.471       .  S
C1137      C1190   1.468       .  S
C1138      C1173   1.472       .  S
C1138      C1177   1.471       .  S
C1138      C1205   1.468       .  S
N1139      C2364   1.350       .  A
N1139      C1143   1.350       .  A
N1139      H1171   1.041       .  S
N1140      C1147   1.348       .  A
N1140      C1148   1.348       .  A
N1141      C2366   1.350       .  A
N1141      C1145   1.350       .  A
N1141      H1172   1.041       .  S
N1142      C1149   1.348       .  A
N1142      C1150   1.348       .  A
C1143      C1151   1.388       .  A
C1143      C1159   1.405       .  A
C1144      N2359   1.350   1_455  A
C1144      C1160   1.405       .  A
C1144      C1152   1.388       .  A
C1145      C1153   1.388       .  A
C1145      C1162   1.405       .  A
C1146      N2361   1.350   1_455  A
C1146      C1161   1.405       .  A
C1146      C1154   1.388       .  A
C1147      C1159   1.410       .  A
C1147      C1155   1.386       .  A
C1148      C1162   1.410       .  A
C1148      C1156   1.386       .  A
C1149      C1157   1.386       .  A
C1149      C1160   1.410       .  A
C1150      C1158   1.386       .  A
C1150      C1161   1.410       .  A
C1151      C2372   1.368       .  A
C1151      H1163   1.081       .  S
C1152      C2371   1.368   1_455  A
C1152      H1164   1.081       .  S
C1153      C2374   1.367       .  A
C1153      H1165   1.081       .  S
C1154      C2373   1.367   1_455  A
C1154      H1166   1.081       .  S
C1155      C1156   1.387       .  A
C1155      H1167   1.082       .  S
C1156      H1168   1.082       .  S
C1157      C1158   1.387       .  A
C1157      H1169   1.082       .  S
C1158      H1170   1.082       .  S
C1159      C1212   1.446       .  S
C1160      C1174   1.446       .  S
C1161      C1176   1.446       .  S
C1162      C1193   1.446       .  S
C1173      C1174   1.208       .  T
C1175      C1176   1.208       .  T
C1177      C1178   1.208       .  T
C1179      C1180   1.208       .  T
C1181      C1182   1.208       .  T
C1183      C1184   1.208       .  T
C1185      C1186   1.208       .  T
C1187      C1188   1.208       .  T
C1189      C1190   1.208       .  T
C1191      C1192   1.208       .  T
C1193      C1194   1.208       .  T
C1195      C1196   1.208       .  T
C1197      C1198   1.208       .  T
C1199      C1200   1.208       .  T
C1201      C1202   1.208       .  T
C1203      C1204   1.208       .  T
C1205      C1206   1.208       .  T
C1207      C1208   1.208       .  T
C1209      C1210   1.208       .  T
C1211      C1212   1.208       .  T
C1213      C1214   1.208       .  T
C1215      C1216   1.208       .  T
C1217      C1218   1.208       .  T
C1219      C1220   1.208       .  T
N1221      N1222   1.328       .  A
N1221      N1227   1.320       .  A
N1222      C1229   1.360       .  A
N1223      N1225   1.320       .  A
N1223      N1224   1.327       .  A
N1224      C1230   1.359       .  A
N1225      N1226   1.328       .  A
N1225     Mn1555   2.244       .  S
N1226      C1230   1.360       .  A
N1227      N1228   1.327       .  A
N1227     Mn1239   2.241       .  S
N1228      C1229   1.359       .  A
C1229      C1443   1.540       .  S
C1230      C1267   1.540       .  S
N1231      N1237   1.320       .  A
N1231      N1232   1.328       .  A
N1232      C1240   1.360       .  A
N1233      N1234   1.327       .  A
N1233      N1235   1.320       .  A
N1233     Mn1849   2.241   1_545  S
N1234      C1241   1.359       .  A
N1235      N1236   1.328       .  A
N1235     Mn1261   2.244       .  S
N1236      C1241   1.360       .  A
N1237      N1238   1.327       .  A
N1238      C1240   1.359       .  A
Mn1239     N1843   2.241       .  S
Mn1239    Cl1873   2.575       .  S
C1240      C1337   1.540       .  S
C1241      C1442   1.540       .  S
N1242      N1243   1.328       .  A
N1242      N1248   1.320       .  A
N1242     Mn1250   2.244       .  S
N1243      C1251   1.360       .  A
N1244      N1246   1.320       .  A
N1244      N1245   1.327       .  A
N1245      C1252   1.359       .  A
N1246      N1247   1.328       .  A
N1247      C1252   1.360       .  A
N1248      N1249   1.327       .  A
N1248     Mn1872   2.241       .  S
N1249      C1251   1.359       .  A
Mn1250     N1530   2.244       .  S
C1251      C1266   1.540       .  S
C1252      C1372   1.540       .  S
N1253      N1254   1.328       .  A
N1253      N1259   1.320       .  A
N1253     Mn1566   2.244       .  S
N1254      C1264   1.360       .  A
N1255      N1256   1.327       .  A
N1255      N1257   1.320       .  A
N1255     Mn1262   2.241   1_545  S
N1256      C1265   1.359       .  A
N1257      N1258   1.328       .  A
N1258      C1265   1.360       .  A
N1259      N1260   1.327       .  A
N1260      C1264   1.359       .  A
Mn1261     N1558   2.244   1_554  S
Mn1261    Cl1263   2.579   1_545  S
Mn1262     N1858   2.241       .  S
Cl1263    Mn1849   2.575       .  S
C1264      C1407   1.540       .  S
C1265      C1302   1.540       .  S
C1266      C1520   1.468       .  S
C1266      C1523   1.471       .  S
C1266      C1525   1.472       .  S
C1267      C1515   1.471       .  S
C1267      C1516   1.472       .  S
C1267      C1519   1.468       .  S
N1268      C1273   1.350       .  A
N1268      C1577   1.350   1_554  A
N1268      H1300   1.041       .  S
N1269      C1276   1.349       .  A
N1269      C1277   1.349       .  A
N1270      C1275   1.350       .  A
N1270      C1579   1.350   1_554  A
N1270      H1301   1.041       .  S
N1271      C1278   1.349       .  A
N1271      C1279   1.349       .  A
C1272      N1573   1.350       .  A
C1272      C1280   1.388       .  A
C1272      C1288   1.406       .  A
C1273      C1289   1.406       .  A
C1273      C1281   1.388       .  A
C1274      N1575   1.350       .  A
C1274      C1282   1.388       .  A
C1274      C1291   1.406       .  A
C1275      C1290   1.406       .  A
C1275      C1283   1.388       .  A
C1276      C1288   1.410       .  A
C1276      C1284   1.386       .  A
C1277      C1291   1.410       .  A
C1277      C1285   1.386       .  A
C1278      C1286   1.386       .  A
C1278      C1289   1.410       .  A
C1279      C1287   1.386       .  A
C1279      C1290   1.410       .  A
C1280      C1586   1.366       .  A
C1280      H1292   1.081       .  S
C1281      C1585   1.366   1_554  A
C1281      H1293   1.081       .  S
C1282      C1588   1.366       .  A
C1282      H1294   1.081       .  S
C1283      C1587   1.366   1_554  A
C1283      H1295   1.081       .  S
C1284      C1285   1.385       .  A
C1284      H1296   1.082       .  S
C1285      H1297   1.082       .  S
C1286      C1287   1.385       .  A
C1286      H1298   1.082       .  S
C1287      H1299   1.082       .  S
C1288      C1521   1.446       .  S
C1289      C1518   1.446       .  S
C1290      C1511   1.446       .  S
C1291      C1512   1.446       .  S
C1302      C1504   1.472       .  S
C1302      C1506   1.468       .  S
C1302      C1508   1.471       .  S
N1303      C1918   1.351       .  A
N1303      C1307   1.351       .  A
N1303      H1335   1.040       .  S
N1304      C1311   1.349       .  A
N1304      C1312   1.349       .  A
N1305      C1920   1.351       .  A
N1305      C1309   1.351       .  A
N1305      H1336   1.040       .  S
N1306      C1313   1.349       .  A
N1306      C1314   1.349       .  A
C1307      C1315   1.388       .  A
C1307      C1323   1.407       .  A
C1308      N1913   1.351   1_545  A
C1308      C1324   1.407       .  A
C1308      C1316   1.388       .  A
C1309      C1317   1.388       .  A
C1309      C1326   1.407       .  A
C1310      N1915   1.351   1_545  A
C1310      C1325   1.407       .  A
C1310      C1318   1.388       .  A
C1311      C1323   1.410       .  A
C1311      C1319   1.386       .  A
C1312      C1326   1.410       .  A
C1312      C1320   1.386       .  A
C1313      C1321   1.386       .  A
C1313      C1324   1.410       .  A
C1314      C1322   1.386       .  A
C1314      C1325   1.410       .  A
C1315      C1926   1.367       .  A
C1315      H1327   1.081       .  S
C1316      C1925   1.367   1_545  A
C1316      H1328   1.081       .  S
C1317      C1928   1.367       .  A
C1317      H1329   1.081       .  S
C1318      C1927   1.367   1_545  A
C1318      H1330   1.081       .  S
C1319      C1320   1.384       .  A
C1319      H1331   1.082       .  S
C1320      H1332   1.082       .  S
C1321      C1322   1.384       .  A
C1321      H1333   1.082       .  S
C1322      H1334   1.082       .  S
C1323      C1522   1.447       .  S
C1324      C1509   1.447       .  S
C1325      C1502   1.447       .  S
C1326      C1514   1.447       .  S
C1337      C1499   1.472       .  S
C1337      C1500   1.468       .  S
C1337      C1503   1.471       .  S
N1338      C1343   1.350       .  A
N1338      C1647   1.350   1_554  A
N1338      H1370   1.041       .  S
N1339      C1346   1.349       .  A
N1339      C1347   1.349       .  A
N1340      C1345   1.350       .  A
N1340      C1649   1.350   1_554  A
N1340      H1371   1.041       .  S
N1341      C1348   1.349       .  A
N1341      C1349   1.349       .  A
C1342      N1643   1.350       .  A
C1342      C1350   1.388       .  A
C1342      C1358   1.406       .  A
C1343      C1359   1.406       .  A
C1343      C1351   1.388       .  A
C1344      N1645   1.350       .  A
C1344      C1352   1.388       .  A
C1344      C1361   1.406       .  A
C1345      C1360   1.406       .  A
C1345      C1353   1.388       .  A
C1346      C1358   1.410       .  A
C1346      C1354   1.386       .  A
C1347      C1361   1.410       .  A
C1347      C1355   1.386       .  A
C1348      C1356   1.386       .  A
C1348      C1359   1.410       .  A
C1349      C1357   1.386       .  A
C1349      C1360   1.410       .  A
C1350      C1656   1.366       .  A
C1350      H1362   1.081       .  S
C1351      C1655   1.366   1_554  A
C1351      H1363   1.081       .  S
C1352      C1658   1.366       .  A
C1352      H1364   1.081       .  S
C1353      C1657   1.366   1_554  A
C1353      H1365   1.081       .  S
C1354      C1355   1.385       .  A
C1354      H1366   1.082       .  S
C1355      H1367   1.082       .  S
C1356      C1357   1.385       .  A
C1356      H1368   1.082       .  S
C1357      H1369   1.082       .  S
C1358      C1507   1.446       .  S
C1359      C1501   1.446       .  S
C1360      C1494   1.446       .  S
C1361      C1496   1.446       .  S
C1372      C1490   1.471       .  S
C1372      C1492   1.472       .  S
C1372      C1513   1.468       .  S
N1373      C1377   1.350       .  A
N1373      H1405   1.041       .  S
N1374      C1381   1.348       .  A
N1374      C1382   1.348       .  A
N1375      C1379   1.350       .  A
N1375      H1406   1.041       .  S
N1376      C1383   1.348       .  A
N1376      C1384   1.348       .  A
C1377      C1385   1.388       .  A
C1377      C1393   1.405       .  A
C1378      C1394   1.405       .  A
C1378      C1386   1.388       .  A
C1379      C1387   1.388       .  A
C1379      C1396   1.405       .  A
C1380      C1395   1.405       .  A
C1380      C1388   1.388       .  A
C1381      C1393   1.410       .  A
C1381      C1389   1.386       .  A
C1382      C1396   1.410       .  A
C1382      C1390   1.386       .  A
C1383      C1391   1.386       .  A
C1383      C1394   1.410       .  A
C1384      C1392   1.386       .  A
C1384      C1395   1.410       .  A
C1385      H1397   1.081       .  S
C1386      H1398   1.081       .  S
C1387      H1399   1.081       .  S
C1388      H1400   1.081       .  S
C1389      C1390   1.387       .  A
C1389      H1401   1.082       .  S
C1390      H1402   1.082       .  S
C1391      C1392   1.387       .  A
C1391      H1403   1.082       .  S
C1392      H1404   1.082       .  S
C1393      C1524   1.446       .  S
C1394      C1493   1.446       .  S
C1395      C1488   1.446       .  S
C1396      C1505   1.446       .  S
C1407      C1486   1.471       .  S
C1407      C1489   1.472       .  S
C1407      C1497   1.468       .  S
N1408      C1413   1.351       .  A
N1408      C2022   1.351       .  A
N1408      H1440   1.040       .  S
N1409      C1416   1.349       .  A
N1409      C1417   1.349       .  A
N1410      C1415   1.351       .  A
N1410      C2024   1.351       .  A
N1410      H1441   1.040       .  S
N1411      C1418   1.349       .  A
N1411      C1419   1.349       .  A
C1412      N2018   1.351   1_545  A
C1412      C1420   1.388       .  A
C1412      C1428   1.407       .  A
C1413      C1429   1.407       .  A
C1413      C1421   1.388       .  A
C1414      N2020   1.351   1_545  A
C1414      C1422   1.388       .  A
C1414      C1431   1.407       .  A
C1415      C1430   1.407       .  A
C1415      C1423   1.388       .  A
C1416      C1428   1.410       .  A
C1416      C1424   1.386       .  A
C1417      C1431   1.410       .  A
C1417      C1425   1.386       .  A
C1418      C1426   1.386       .  A
C1418      C1429   1.410       .  A
C1419      C1427   1.386       .  A
C1419      C1430   1.410       .  A
C1420      C2031   1.367   1_545  A
C1420      H1432   1.081       .  S
C1421      C2030   1.367       .  A
C1421      H1433   1.081       .  S
C1422      C2033   1.367   1_545  A
C1422      H1434   1.081       .  S
C1423      C2032   1.367       .  A
C1423      H1435   1.081       .  S
C1424      C1425   1.384       .  A
C1424      H1436   1.082       .  S
C1425      H1437   1.082       .  S
C1426      C1427   1.384       .  A
C1426      H1438   1.082       .  S
C1427      H1439   1.082       .  S
C1428      C1484   1.447       .  S
C1429      C1483   1.447       .  S
C1430      C1491   1.447       .  S
C1431      C1487   1.447       .  S
C1442      C1480   1.472       .  S
C1442      C1485   1.471       .  S
C1442      C1495   1.468       .  S
C1443      C1478   1.472       .  S
C1443      C1482   1.471       .  S
C1443      C1510   1.468       .  S
N1444      C1448   1.350       .  A
N1444      H1476   1.041       .  S
N1445      C1452   1.348       .  A
N1445      C1453   1.348       .  A
N1446      C1450   1.350       .  A
N1446      H1477   1.041       .  S
N1447      C1454   1.348       .  A
N1447      C1455   1.348       .  A
C1448      C1456   1.388       .  A
C1448      C1464   1.405       .  A
C1449      C1465   1.405       .  A
C1449      C1457   1.388       .  A
C1450      C1458   1.388       .  A
C1450      C1467   1.405       .  A
C1451      C1466   1.405       .  A
C1451      C1459   1.388       .  A
C1452      C1464   1.410       .  A
C1452      C1460   1.386       .  A
C1453      C1467   1.410       .  A
C1453      C1461   1.386       .  A
C1454      C1462   1.386       .  A
C1454      C1465   1.410       .  A
C1455      C1463   1.386       .  A
C1455      C1466   1.410       .  A
C1456      H1468   1.081       .  S
C1457      H1469   1.081       .  S
C1458      H1470   1.081       .  S
C1459      H1471   1.081       .  S
C1460      C1461   1.387       .  A
C1460      H1472   1.082       .  S
C1461      H1473   1.082       .  S
C1462      C1463   1.387       .  A
C1462      H1474   1.082       .  S
C1463      H1475   1.082       .  S
C1464      C1517   1.446       .  S
C1465      C1479   1.446       .  S
C1466      C1481   1.446       .  S
C1467      C1498   1.446       .  S
C1478      C1479   1.208       .  T
C1480      C1481   1.208       .  T
C1482      C1483   1.208       .  T
C1484      C1485   1.208       .  T
C1486      C1487   1.208       .  T
C1488      C1489   1.208       .  T
C1490      C1491   1.208       .  T
C1492      C1493   1.208       .  T
C1494      C1495   1.208       .  T
C1496      C1497   1.208       .  T
C1498      C1499   1.208       .  T
C1500      C1501   1.208       .  T
C1502      C1503   1.208       .  T
C1504      C1505   1.208       .  T
C1506      C1507   1.208       .  T
C1508      C1509   1.208       .  T
C1510      C1511   1.208       .  T
C1512      C1513   1.208       .  T
C1514      C1515   1.208       .  T
C1516      C1517   1.208       .  T
C1518      C1519   1.208       .  T
C1520      C1521   1.208       .  T
C1522      C1523   1.208       .  T
C1524      C1525   1.208       .  T
N1526      N1527   1.328       .  A
N1526      N1532   1.320       .  A
N1527      C1534   1.360       .  A
N1528      N1530   1.320       .  A
N1528      N1529   1.327       .  A
N1529      C1535   1.359       .  A
N1530      N1531   1.328       .  A
N1531      C1535   1.360       .  A
N1532      N1533   1.327       .  A
N1532     Mn1544   2.241       .  S
N1533      C1534   1.359       .  A
C1534      C1748   1.540       .  S
C1535      C1572   1.540       .  S
N1536      N1542   1.320       .  A
N1536      N1537   1.328       .  A
N1537      C1545   1.360       .  A
N1538      N1539   1.327       .  A
N1538      N1540   1.320       .  A
N1538     Mn2154   2.241   1_545  S
N1539      C1546   1.359       .  A
N1540      N1541   1.328       .  A
N1540     Mn1566   2.244       .  S
N1541      C1546   1.360       .  A
N1542      N1543   1.327       .  A
N1543      C1545   1.359       .  A
Mn1544     N2148   2.241       .  S
Mn1544    Cl2178   2.575       .  S
C1545      C1642   1.540       .  S
C1546      C1747   1.540       .  S
N1547      N1548   1.328       .  A
N1547      N1553   1.320       .  A
N1547     Mn1555   2.244   1_556  S
N1548      C1556   1.360       .  A
N1549      N1551   1.320       .  A
N1549      N1550   1.327       .  A
N1550      C1557   1.359       .  A
N1551      N1552   1.328       .  A
N1552      C1557   1.360       .  A
N1553      N1554   1.327       .  A
N1553     Mn2177   2.241       .  S
N1554      C1556   1.359       .  A
C1556      C1571   1.540       .  S
C1557      C1677   1.540       .  S
N1558      N1559   1.328       .  A
N1558      N1564   1.320       .  A
N1559      C1569   1.360       .  A
N1560      N1561   1.327       .  A
N1560      N1562   1.320       .  A
N1560     Mn1567   2.241   1_545  S
N1561      C1570   1.359       .  A
N1562      N1563   1.328       .  A
N1563      C1570   1.360       .  A
N1564      N1565   1.327       .  A
N1565      C1569   1.359       .  A
Mn1566    Cl1568   2.579   1_545  S
Mn1567     N2163   2.241       .  S
Cl1568    Mn2154   2.575       .  S
C1569      C1712   1.540       .  S
C1570      C1607   1.540       .  S
C1571      C1825   1.468       .  S
C1571      C1828   1.471       .  S
C1571      C1830   1.472       .  S
C1572      C1820   1.471       .  S
C1572      C1821   1.472       .  S
C1572      C1824   1.468       .  S
N1573      C1578   1.350       .  A
N1573      H1605   1.041       .  S
N1574      C1581   1.349       .  A
N1574      C1582   1.349       .  A
N1575      C1580   1.350       .  A
N1575      H1606   1.041       .  S
N1576      C1583   1.349       .  A
N1576      C1584   1.349       .  A
C1577      C1585   1.388       .  A
C1577      C1593   1.406       .  A
C1578      C1594   1.406       .  A
C1578      C1586   1.388       .  A
C1579      C1587   1.388       .  A
C1579      C1596   1.406       .  A
C1580      C1595   1.406       .  A
C1580      C1588   1.388       .  A
C1581      C1593   1.410       .  A
C1581      C1589   1.386       .  A
C1582      C1596   1.410       .  A
C1582      C1590   1.386       .  A
C1583      C1591   1.386       .  A
C1583      C1594   1.410       .  A
C1584      C1592   1.386       .  A
C1584      C1595   1.410       .  A
C1585      H1597   1.081       .  S
C1586      H1598   1.081       .  S
C1587      H1599   1.081       .  S
C1588      H1600   1.081       .  S
C1589      C1590   1.385       .  A
C1589      H1601   1.082       .  S
C1590      H1602   1.082       .  S
C1591      C1592   1.385       .  A
C1591      H1603   1.082       .  S
C1592      H1604   1.082       .  S
C1593      C1826   1.446       .  S
C1594      C1823   1.446       .  S
C1595      C1816   1.446       .  S
C1596      C1817   1.446       .  S
C1607      C1809   1.472       .  S
C1607      C1811   1.468       .  S
C1607      C1813   1.471       .  S
N1608      C2223   1.351       .  A
N1608      C1612   1.351       .  A
N1608      H1640   1.040       .  S
N1609      C1616   1.349       .  A
N1609      C1617   1.349       .  A
N1610      C2225   1.351       .  A
N1610      C1614   1.351       .  A
N1610      H1641   1.040       .  S
N1611      C1618   1.349       .  A
N1611      C1619   1.349       .  A
C1612      C1620   1.388       .  A
C1612      C1628   1.407       .  A
C1613      N2218   1.351   1_545  A
C1613      C1629   1.407       .  A
C1613      C1621   1.388       .  A
C1614      C1622   1.388       .  A
C1614      C1631   1.407       .  A
C1615      N2220   1.351   1_545  A
C1615      C1630   1.407       .  A
C1615      C1623   1.388       .  A
C1616      C1628   1.410       .  A
C1616      C1624   1.386       .  A
C1617      C1631   1.410       .  A
C1617      C1625   1.386       .  A
C1618      C1626   1.386       .  A
C1618      C1629   1.410       .  A
C1619      C1627   1.386       .  A
C1619      C1630   1.410       .  A
C1620      C2231   1.367       .  A
C1620      H1632   1.081       .  S
C1621      C2230   1.367   1_545  A
C1621      H1633   1.081       .  S
C1622      C2233   1.367       .  A
C1622      H1634   1.081       .  S
C1623      C2232   1.367   1_545  A
C1623      H1635   1.081       .  S
C1624      C1625   1.384       .  A
C1624      H1636   1.082       .  S
C1625      H1637   1.082       .  S
C1626      C1627   1.384       .  A
C1626      H1638   1.082       .  S
C1627      H1639   1.082       .  S
C1628      C1827   1.447       .  S
C1629      C1814   1.447       .  S
C1630      C1807   1.447       .  S
C1631      C1819   1.447       .  S
C1642      C1804   1.472       .  S
C1642      C1805   1.468       .  S
C1642      C1808   1.471       .  S
N1643      C1648   1.350       .  A
N1643      H1675   1.041       .  S
N1644      C1651   1.349       .  A
N1644      C1652   1.349       .  A
N1645      C1650   1.350       .  A
N1645      H1676   1.041       .  S
N1646      C1653   1.349       .  A
N1646      C1654   1.349       .  A
C1647      C1655   1.388       .  A
C1647      C1663   1.406       .  A
C1648      C1664   1.406       .  A
C1648      C1656   1.388       .  A
C1649      C1657   1.388       .  A
C1649      C1666   1.406       .  A
C1650      C1665   1.406       .  A
C1650      C1658   1.388       .  A
C1651      C1663   1.410       .  A
C1651      C1659   1.386       .  A
C1652      C1666   1.410       .  A
C1652      C1660   1.386       .  A
C1653      C1661   1.386       .  A
C1653      C1664   1.410       .  A
C1654      C1662   1.386       .  A
C1654      C1665   1.410       .  A
C1655      H1667   1.081       .  S
C1656      H1668   1.081       .  S
C1657      H1669   1.081       .  S
C1658      H1670   1.081       .  S
C1659      C1660   1.385       .  A
C1659      H1671   1.082       .  S
C1660      H1672   1.082       .  S
C1661      C1662   1.385       .  A
C1661      H1673   1.082       .  S
C1662      H1674   1.082       .  S
C1663      C1812   1.446       .  S
C1664      C1806   1.446       .  S
C1665      C1799   1.446       .  S
C1666      C1801   1.446       .  S
C1677      C1795   1.471       .  S
C1677      C1797   1.472       .  S
C1677      C1818   1.468       .  S
N1678      C1682   1.350       .  A
N1678      H1710   1.041       .  S
N1679      C1686   1.348       .  A
N1679      C1687   1.348       .  A
N1680      C1684   1.350       .  A
N1680      H1711   1.041       .  S
N1681      C1688   1.348       .  A
N1681      C1689   1.348       .  A
C1682      C1690   1.388       .  A
C1682      C1698   1.405       .  A
C1683      C1699   1.405       .  A
C1683      C1691   1.388       .  A
C1684      C1692   1.388       .  A
C1684      C1701   1.405       .  A
C1685      C1700   1.405       .  A
C1685      C1693   1.388       .  A
C1686      C1698   1.410       .  A
C1686      C1694   1.386       .  A
C1687      C1701   1.410       .  A
C1687      C1695   1.386       .  A
C1688      C1696   1.386       .  A
C1688      C1699   1.410       .  A
C1689      C1697   1.386       .  A
C1689      C1700   1.410       .  A
C1690      H1702   1.081       .  S
C1691      H1703   1.081       .  S
C1692      H1704   1.081       .  S
C1693      H1705   1.081       .  S
C1694      C1695   1.387       .  A
C1694      H1706   1.082       .  S
C1695      H1707   1.082       .  S
C1696      C1697   1.387       .  A
C1696      H1708   1.082       .  S
C1697      H1709   1.082       .  S
C1698      C1829   1.446       .  S
C1699      C1798   1.446       .  S
C1700      C1793   1.446       .  S
C1701      C1810   1.446       .  S
C1712      C1791   1.471       .  S
C1712      C1794   1.472       .  S
C1712      C1802   1.468       .  S
N1713      C1718   1.351       .  A
N1713      C2327   1.351       .  A
N1713      H1745   1.040       .  S
N1714      C1721   1.349       .  A
N1714      C1722   1.349       .  A
N1715      C1720   1.351       .  A
N1715      C2329   1.351       .  A
N1715      H1746   1.040       .  S
N1716      C1723   1.349       .  A
N1716      C1724   1.349       .  A
C1717      N2323   1.351   1_545  A
C1717      C1725   1.388       .  A
C1717      C1733   1.407       .  A
C1718      C1734   1.407       .  A
C1718      C1726   1.388       .  A
C1719      N2325   1.351   1_545  A
C1719      C1727   1.388       .  A
C1719      C1736   1.407       .  A
C1720      C1735   1.407       .  A
C1720      C1728   1.388       .  A
C1721      C1733   1.410       .  A
C1721      C1729   1.386       .  A
C1722      C1736   1.410       .  A
C1722      C1730   1.386       .  A
C1723      C1731   1.386       .  A
C1723      C1734   1.410       .  A
C1724      C1732   1.386       .  A
C1724      C1735   1.410       .  A
C1725      C2336   1.367   1_545  A
C1725      H1737   1.081       .  S
C1726      C2335   1.367       .  A
C1726      H1738   1.081       .  S
C1727      C2338   1.367   1_545  A
C1727      H1739   1.081       .  S
C1728      C2337   1.367       .  A
C1728      H1740   1.081       .  S
C1729      C1730   1.384       .  A
C1729      H1741   1.082       .  S
C1730      H1742   1.082       .  S
C1731      C1732   1.384       .  A
C1731      H1743   1.082       .  S
C1732      H1744   1.082       .  S
C1733      C1789   1.447       .  S
C1734      C1788   1.447       .  S
C1735      C1796   1.447       .  S
C1736      C1792   1.447       .  S
C1747      C1785   1.472       .  S
C1747      C1790   1.471       .  S
C1747      C1800   1.468       .  S
C1748      C1783   1.472       .  S
C1748      C1787   1.471       .  S
C1748      C1815   1.468       .  S
N1749      C1753   1.350       .  A
N1749      H1781   1.041       .  S
N1750      C1757   1.348       .  A
N1750      C1758   1.348       .  A
N1751      C1755   1.350       .  A
N1751      H1782   1.041       .  S
N1752      C1759   1.348       .  A
N1752      C1760   1.348       .  A
C1753      C1761   1.388       .  A
C1753      C1769   1.405       .  A
C1754      C1770   1.405       .  A
C1754      C1762   1.388       .  A
C1755      C1763   1.388       .  A
C1755      C1772   1.405       .  A
C1756      C1771   1.405       .  A
C1756      C1764   1.388       .  A
C1757      C1769   1.410       .  A
C1757      C1765   1.386       .  A
C1758      C1772   1.410       .  A
C1758      C1766   1.386       .  A
C1759      C1767   1.386       .  A
C1759      C1770   1.410       .  A
C1760      C1768   1.386       .  A
C1760      C1771   1.410       .  A
C1761      H1773   1.081       .  S
C1762      H1774   1.081       .  S
C1763      H1775   1.081       .  S
C1764      H1776   1.081       .  S
C1765      C1766   1.387       .  A
C1765      H1777   1.082       .  S
C1766      H1778   1.082       .  S
C1767      C1768   1.387       .  A
C1767      H1779   1.082       .  S
C1768      H1780   1.082       .  S
C1769      C1822   1.446       .  S
C1770      C1784   1.446       .  S
C1771      C1786   1.446       .  S
C1772      C1803   1.446       .  S
C1783      C1784   1.208       .  T
C1785      C1786   1.208       .  T
C1787      C1788   1.208       .  T
C1789      C1790   1.208       .  T
C1791      C1792   1.208       .  T
C1793      C1794   1.208       .  T
C1795      C1796   1.208       .  T
C1797      C1798   1.208       .  T
C1799      C1800   1.208       .  T
C1801      C1802   1.208       .  T
C1803      C1804   1.208       .  T
C1805      C1806   1.208       .  T
C1807      C1808   1.208       .  T
C1809      C1810   1.208       .  T
C1811      C1812   1.208       .  T
C1813      C1814   1.208       .  T
C1815      C1816   1.208       .  T
C1817      C1818   1.208       .  T
C1819      C1820   1.208       .  T
C1821      C1822   1.208       .  T
C1823      C1824   1.208       .  T
C1825      C1826   1.208       .  T
C1827      C1828   1.208       .  T
C1829      C1830   1.208       .  T
N1831      N1832   1.328       .  A
N1831      N1837   1.320       .  A
N1832      C1839   1.360       .  A
N1833      N1835   1.320       .  A
N1833      N1834   1.327       .  A
N1834      C1840   1.359       .  A
N1835      N1836   1.328       .  A
N1835     Mn2165   2.244       .  S
N1836      C1840   1.360       .  A
N1837      N1838   1.327       .  A
N1837     Mn1849   2.241       .  S
N1838      C1839   1.359       .  A
C1839      C2053   1.540       .  S
C1840      C1877   1.540       .  S
N1841      N1847   1.320       .  A
N1841      N1842   1.328       .  A
N1842      C1850   1.360       .  A
N1843      N1844   1.327       .  A
N1843      N1845   1.320       .  A
N1844      C1851   1.359       .  A
N1845      N1846   1.328       .  A
N1845     Mn1871   2.244       .  S
N1846      C1851   1.360       .  A
N1847      N1848   1.327       .  A
N1848      C1850   1.359       .  A
C1850      C1947   1.540       .  S
C1851      C2052   1.540       .  S
N1852      N1853   1.328       .  A
N1852      N1858   1.320       .  A
N1852     Mn1860   2.244       .  S
N1853      C1861   1.360       .  A
N1854      N1856   1.320       .  A
N1854      N1855   1.327       .  A
N1855      C1862   1.359       .  A
N1856      N1857   1.328       .  A
N1857      C1862   1.360       .  A
N1858      N1859   1.327       .  A
N1859      C1861   1.359       .  A
Mn1860     N2140   2.244       .  S
C1861      C1876   1.540       .  S
C1862      C1982   1.540       .  S
N1863      N1864   1.328       .  A
N1863      N1869   1.320       .  A
N1863     Mn2176   2.244       .  S
N1864      C1874   1.360       .  A
N1865      N1866   1.327       .  A
N1865      N1867   1.320       .  A
N1865     Mn1872   2.241       .  S
N1866      C1875   1.359       .  A
N1867      N1868   1.328       .  A
N1868      C1875   1.360       .  A
N1869      N1870   1.327       .  A
N1870      C1874   1.359       .  A
Mn1871     N2168   2.244   1_554  S
Mn1871    Cl1873   2.579       .  S
C1874      C2017   1.540       .  S
C1875      C1912   1.540       .  S
C1876      C2130   1.468       .  S
C1876      C2133   1.471       .  S
C1876      C2135   1.472       .  S
C1877      C2125   1.471       .  S
C1877      C2126   1.472       .  S
C1877      C2129   1.468       .  S
N1878      C1883   1.350       .  A
N1878      C2187   1.350   1_554  A
N1878      H1910   1.041       .  S
N1879      C1886   1.349       .  A
N1879      C1887   1.349       .  A
N1880      C1885   1.350       .  A
N1880      C2189   1.350   1_554  A
N1880      H1911   1.041       .  S
N1881      C1888   1.349       .  A
N1881      C1889   1.349       .  A
C1882      N2183   1.350       .  A
C1882      C1890   1.388       .  A
C1882      C1898   1.406       .  A
C1883      C1899   1.406       .  A
C1883      C1891   1.388       .  A
C1884      N2185   1.350       .  A
C1884      C1892   1.388       .  A
C1884      C1901   1.406       .  A
C1885      C1900   1.406       .  A
C1885      C1893   1.388       .  A
C1886      C1898   1.410       .  A
C1886      C1894   1.386       .  A
C1887      C1901   1.410       .  A
C1887      C1895   1.386       .  A
C1888      C1896   1.386       .  A
C1888      C1899   1.410       .  A
C1889      C1897   1.386       .  A
C1889      C1900   1.410       .  A
C1890      C2196   1.366       .  A
C1890      H1902   1.081       .  S
C1891      C2195   1.366   1_554  A
C1891      H1903   1.081       .  S
C1892      C2198   1.366       .  A
C1892      H1904   1.081       .  S
C1893      C2197   1.366   1_554  A
C1893      H1905   1.081       .  S
C1894      C1895   1.385       .  A
C1894      H1906   1.082       .  S
C1895      H1907   1.082       .  S
C1896      C1897   1.385       .  A
C1896      H1908   1.082       .  S
C1897      H1909   1.082       .  S
C1898      C2131   1.446       .  S
C1899      C2128   1.446       .  S
C1900      C2121   1.446       .  S
C1901      C2122   1.446       .  S
C1912      C2114   1.472       .  S
C1912      C2116   1.468       .  S
C1912      C2118   1.471       .  S
N1913      C1917   1.351       .  A
N1913      H1945   1.040       .  S
N1914      C1921   1.349       .  A
N1914      C1922   1.349       .  A
N1915      C1919   1.351       .  A
N1915      H1946   1.040       .  S
N1916      C1923   1.349       .  A
N1916      C1924   1.349       .  A
C1917      C1925   1.388       .  A
C1917      C1933   1.407       .  A
C1918      C1934   1.407       .  A
C1918      C1926   1.388       .  A
C1919      C1927   1.388       .  A
C1919      C1936   1.407       .  A
C1920      C1935   1.407       .  A
C1920      C1928   1.388       .  A
C1921      C1933   1.410       .  A
C1921      C1929   1.386       .  A
C1922      C1936   1.410       .  A
C1922      C1930   1.386       .  A
C1923      C1931   1.386       .  A
C1923      C1934   1.410       .  A
C1924      C1932   1.386       .  A
C1924      C1935   1.410       .  A
C1925      H1937   1.081       .  S
C1926      H1938   1.081       .  S
C1927      H1939   1.081       .  S
C1928      H1940   1.081       .  S
C1929      C1930   1.384       .  A
C1929      H1941   1.082       .  S
C1930      H1942   1.082       .  S
C1931      C1932   1.384       .  A
C1931      H1943   1.082       .  S
C1932      H1944   1.082       .  S
C1933      C2132   1.447       .  S
C1934      C2119   1.447       .  S
C1935      C2112   1.447       .  S
C1936      C2124   1.447       .  S
C1947      C2109   1.472       .  S
C1947      C2110   1.468       .  S
C1947      C2113   1.471       .  S
N1948      C1953   1.350       .  A
N1948      C2257   1.350   1_554  A
N1948      H1980   1.041       .  S
N1949      C1956   1.349       .  A
N1949      C1957   1.349       .  A
N1950      C1955   1.350       .  A
N1950      C2259   1.350   1_554  A
N1950      H1981   1.041       .  S
N1951      C1958   1.349       .  A
N1951      C1959   1.349       .  A
C1952      N2253   1.350       .  A
C1952      C1960   1.388       .  A
C1952      C1968   1.406       .  A
C1953      C1969   1.406       .  A
C1953      C1961   1.388       .  A
C1954      N2255   1.350       .  A
C1954      C1962   1.388       .  A
C1954      C1971   1.406       .  A
C1955      C1970   1.406       .  A
C1955      C1963   1.388       .  A
C1956      C1968   1.410       .  A
C1956      C1964   1.386       .  A
C1957      C1971   1.410       .  A
C1957      C1965   1.386       .  A
C1958      C1966   1.386       .  A
C1958      C1969   1.410       .  A
C1959      C1967   1.386       .  A
C1959      C1970   1.410       .  A
C1960      C2266   1.366       .  A
C1960      H1972   1.081       .  S
C1961      C2265   1.366   1_554  A
C1961      H1973   1.081       .  S
C1962      C2268   1.366       .  A
C1962      H1974   1.081       .  S
C1963      C2267   1.366   1_554  A
C1963      H1975   1.081       .  S
C1964      C1965   1.385       .  A
C1964      H1976   1.082       .  S
C1965      H1977   1.082       .  S
C1966      C1967   1.385       .  A
C1966      H1978   1.082       .  S
C1967      H1979   1.082       .  S
C1968      C2117   1.446       .  S
C1969      C2111   1.446       .  S
C1970      C2104   1.446       .  S
C1971      C2106   1.446       .  S
C1982      C2100   1.471       .  S
C1982      C2102   1.472       .  S
C1982      C2123   1.468       .  S
N1983      C1987   1.350       .  A
N1983      H2015   1.041       .  S
N1984      C1991   1.348       .  A
N1984      C1992   1.348       .  A
N1985      C1989   1.350       .  A
N1985      H2016   1.041       .  S
N1986      C1993   1.348       .  A
N1986      C1994   1.348       .  A
C1987      C1995   1.388       .  A
C1987      C2003   1.405       .  A
C1988      C2004   1.405       .  A
C1988      C1996   1.388       .  A
C1989      C1997   1.388       .  A
C1989      C2006   1.405       .  A
C1990      C2005   1.405       .  A
C1990      C1998   1.388       .  A
C1991      C2003   1.410       .  A
C1991      C1999   1.386       .  A
C1992      C2006   1.410       .  A
C1992      C2000   1.386       .  A
C1993      C2001   1.386       .  A
C1993      C2004   1.410       .  A
C1994      C2002   1.386       .  A
C1994      C2005   1.410       .  A
C1995      H2007   1.081       .  S
C1996      H2008   1.081       .  S
C1997      H2009   1.081       .  S
C1998      H2010   1.081       .  S
C1999      C2000   1.387       .  A
C1999      H2011   1.082       .  S
C2000      H2012   1.082       .  S
C2001      C2002   1.387       .  A
C2001      H2013   1.082       .  S
C2002      H2014   1.082       .  S
C2003      C2134   1.446       .  S
C2004      C2103   1.446       .  S
C2005      C2098   1.446       .  S
C2006      C2115   1.446       .  S
C2017      C2096   1.471       .  S
C2017      C2099   1.472       .  S
C2017      C2107   1.468       .  S
N2018      C2023   1.351       .  A
N2018      H2050   1.040       .  S
N2019      C2026   1.349       .  A
N2019      C2027   1.349       .  A
N2020      C2025   1.351       .  A
N2020      H2051   1.040       .  S
N2021      C2028   1.349       .  A
N2021      C2029   1.349       .  A
C2022      C2030   1.388       .  A
C2022      C2038   1.407       .  A
C2023      C2039   1.407       .  A
C2023      C2031   1.388       .  A
C2024      C2032   1.388       .  A
C2024      C2041   1.407       .  A
C2025      C2040   1.407       .  A
C2025      C2033   1.388       .  A
C2026      C2038   1.410       .  A
C2026      C2034   1.386       .  A
C2027      C2041   1.410       .  A
C2027      C2035   1.386       .  A
C2028      C2036   1.386       .  A
C2028      C2039   1.410       .  A
C2029      C2037   1.386       .  A
C2029      C2040   1.410       .  A
C2030      H2042   1.081       .  S
C2031      H2043   1.081       .  S
C2032      H2044   1.081       .  S
C2033      H2045   1.081       .  S
C2034      C2035   1.384       .  A
C2034      H2046   1.082       .  S
C2035      H2047   1.082       .  S
C2036      C2037   1.384       .  A
C2036      H2048   1.082       .  S
C2037      H2049   1.082       .  S
C2038      C2094   1.447       .  S
C2039      C2093   1.447       .  S
C2040      C2101   1.447       .  S
C2041      C2097   1.447       .  S
C2052      C2090   1.472       .  S
C2052      C2095   1.471       .  S
C2052      C2105   1.468       .  S
C2053      C2088   1.472       .  S
C2053      C2092   1.471       .  S
C2053      C2120   1.468       .  S
N2054      C2058   1.350       .  A
N2054      H2086   1.041       .  S
N2055      C2062   1.348       .  A
N2055      C2063   1.348       .  A
N2056      C2060   1.350       .  A
N2056      H2087   1.041       .  S
N2057      C2064   1.348       .  A
N2057      C2065   1.348       .  A
C2058      C2066   1.388       .  A
C2058      C2074   1.405       .  A
C2059      C2075   1.405       .  A
C2059      C2067   1.388       .  A
C2060      C2068   1.388       .  A
C2060      C2077   1.405       .  A
C2061      C2076   1.405       .  A
C2061      C2069   1.388       .  A
C2062      C2074   1.410       .  A
C2062      C2070   1.386       .  A
C2063      C2077   1.410       .  A
C2063      C2071   1.386       .  A
C2064      C2072   1.386       .  A
C2064      C2075   1.410       .  A
C2065      C2073   1.386       .  A
C2065      C2076   1.410       .  A
C2066      H2078   1.081       .  S
C2067      H2079   1.081       .  S
C2068      H2080   1.081       .  S
C2069      H2081   1.081       .  S
C2070      C2071   1.387       .  A
C2070      H2082   1.082       .  S
C2071      H2083   1.082       .  S
C2072      C2073   1.387       .  A
C2072      H2084   1.082       .  S
C2073      H2085   1.082       .  S
C2074      C2127   1.446       .  S
C2075      C2089   1.446       .  S
C2076      C2091   1.446       .  S
C2077      C2108   1.446       .  S
C2088      C2089   1.208       .  T
C2090      C2091   1.208       .  T
C2092      C2093   1.208       .  T
C2094      C2095   1.208       .  T
C2096      C2097   1.208       .  T
C2098      C2099   1.208       .  T
C2100      C2101   1.208       .  T
C2102      C2103   1.208       .  T
C2104      C2105   1.208       .  T
C2106      C2107   1.208       .  T
C2108      C2109   1.208       .  T
C2110      C2111   1.208       .  T
C2112      C2113   1.208       .  T
C2114      C2115   1.208       .  T
C2116      C2117   1.208       .  T
C2118      C2119   1.208       .  T
C2120      C2121   1.208       .  T
C2122      C2123   1.208       .  T
C2124      C2125   1.208       .  T
C2126      C2127   1.208       .  T
C2128      C2129   1.208       .  T
C2130      C2131   1.208       .  T
C2132      C2133   1.208       .  T
C2134      C2135   1.208       .  T
N2136      N2137   1.328       .  A
N2136      N2142   1.320       .  A
N2137      C2144   1.360       .  A
N2138      N2140   1.320       .  A
N2138      N2139   1.327       .  A
N2139      C2145   1.359       .  A
N2140      N2141   1.328       .  A
N2141      C2145   1.360       .  A
N2142      N2143   1.327       .  A
N2142     Mn2154   2.241       .  S
N2143      C2144   1.359       .  A
C2144      C2358   1.540       .  S
C2145      C2182   1.540       .  S
N2146      N2152   1.320       .  A
N2146      N2147   1.328       .  A
N2147      C2155   1.360       .  A
N2148      N2149   1.327       .  A
N2148      N2150   1.320       .  A
N2149      C2156   1.359       .  A
N2150      N2151   1.328       .  A
N2150     Mn2176   2.244       .  S
N2151      C2156   1.360       .  A
N2152      N2153   1.327       .  A
N2153      C2155   1.359       .  A
C2155      C2252   1.540       .  S
C2156      C2357   1.540       .  S
N2157      N2158   1.328       .  A
N2157      N2163   1.320       .  A
N2157     Mn2165   2.244   1_556  S
N2158      C2166   1.360       .  A
N2159      N2161   1.320       .  A
N2159      N2160   1.327       .  A
N2160      C2167   1.359       .  A
N2161      N2162   1.328       .  A
N2162      C2167   1.360       .  A
N2163      N2164   1.327       .  A
N2164      C2166   1.359       .  A
C2166      C2181   1.540       .  S
C2167      C2287   1.540       .  S
N2168      N2169   1.328       .  A
N2168      N2174   1.320       .  A
N2169      C2179   1.360       .  A
N2170      N2171   1.327       .  A
N2170      N2172   1.320       .  A
N2170     Mn2177   2.241       .  S
N2171      C2180   1.359       .  A
N2172      N2173   1.328       .  A
N2173      C2180   1.360       .  A
N2174      N2175   1.327       .  A
N2175      C2179   1.359       .  A
Mn2176    Cl2178   2.579       .  S
C2179      C2322   1.540       .  S
C2180      C2217   1.540       .  S
C2181      C2435   1.468       .  S
C2181      C2438   1.471       .  S
C2181      C2440   1.472       .  S
C2182      C2430   1.471       .  S
C2182      C2431   1.472       .  S
C2182      C2434   1.468       .  S
N2183      C2188   1.350       .  A
N2183      H2215   1.041       .  S
N2184      C2191   1.349       .  A
N2184      C2192   1.349       .  A
N2185      C2190   1.350       .  A
N2185      H2216   1.041       .  S
N2186      C2193   1.349       .  A
N2186      C2194   1.349       .  A
C2187      C2195   1.388       .  A
C2187      C2203   1.406       .  A
C2188      C2204   1.406       .  A
C2188      C2196   1.388       .  A
C2189      C2197   1.388       .  A
C2189      C2206   1.406       .  A
C2190      C2205   1.406       .  A
C2190      C2198   1.388       .  A
C2191      C2203   1.410       .  A
C2191      C2199   1.386       .  A
C2192      C2206   1.410       .  A
C2192      C2200   1.386       .  A
C2193      C2201   1.386       .  A
C2193      C2204   1.410       .  A
C2194      C2202   1.386       .  A
C2194      C2205   1.410       .  A
C2195      H2207   1.081       .  S
C2196      H2208   1.081       .  S
C2197      H2209   1.081       .  S
C2198      H2210   1.081       .  S
C2199      C2200   1.385       .  A
C2199      H2211   1.082       .  S
C2200      H2212   1.082       .  S
C2201      C2202   1.385       .  A
C2201      H2213   1.082       .  S
C2202      H2214   1.082       .  S
C2203      C2436   1.446       .  S
C2204      C2433   1.446       .  S
C2205      C2426   1.446       .  S
C2206      C2427   1.446       .  S
C2217      C2419   1.472       .  S
C2217      C2421   1.468       .  S
C2217      C2423   1.471       .  S
N2218      C2222   1.351       .  A
N2218      H2250   1.040       .  S
N2219      C2226   1.349       .  A
N2219      C2227   1.349       .  A
N2220      C2224   1.351       .  A
N2220      H2251   1.040       .  S
N2221      C2228   1.349       .  A
N2221      C2229   1.349       .  A
C2222      C2230   1.388       .  A
C2222      C2238   1.407       .  A
C2223      C2239   1.407       .  A
C2223      C2231   1.388       .  A
C2224      C2232   1.388       .  A
C2224      C2241   1.407       .  A
C2225      C2240   1.407       .  A
C2225      C2233   1.388       .  A
C2226      C2238   1.410       .  A
C2226      C2234   1.386       .  A
C2227      C2241   1.410       .  A
C2227      C2235   1.386       .  A
C2228      C2236   1.386       .  A
C2228      C2239   1.410       .  A
C2229      C2237   1.386       .  A
C2229      C2240   1.410       .  A
C2230      H2242   1.081       .  S
C2231      H2243   1.081       .  S
C2232      H2244   1.081       .  S
C2233      H2245   1.081       .  S
C2234      C2235   1.384       .  A
C2234      H2246   1.082       .  S
C2235      H2247   1.082       .  S
C2236      C2237   1.384       .  A
C2236      H2248   1.082       .  S
C2237      H2249   1.082       .  S
C2238      C2437   1.447       .  S
C2239      C2424   1.447       .  S
C2240      C2417   1.447       .  S
C2241      C2429   1.447       .  S
C2252      C2414   1.472       .  S
C2252      C2415   1.468       .  S
C2252      C2418   1.471       .  S
N2253      C2258   1.350       .  A
N2253      H2285   1.041       .  S
N2254      C2261   1.349       .  A
N2254      C2262   1.349       .  A
N2255      C2260   1.350       .  A
N2255      H2286   1.041       .  S
N2256      C2263   1.349       .  A
N2256      C2264   1.349       .  A
C2257      C2265   1.388       .  A
C2257      C2273   1.406       .  A
C2258      C2274   1.406       .  A
C2258      C2266   1.388       .  A
C2259      C2267   1.388       .  A
C2259      C2276   1.406       .  A
C2260      C2275   1.406       .  A
C2260      C2268   1.388       .  A
C2261      C2273   1.410       .  A
C2261      C2269   1.386       .  A
C2262      C2276   1.410       .  A
C2262      C2270   1.386       .  A
C2263      C2271   1.386       .  A
C2263      C2274   1.410       .  A
C2264      C2272   1.386       .  A
C2264      C2275   1.410       .  A
C2265      H2277   1.081       .  S
C2266      H2278   1.081       .  S
C2267      H2279   1.081       .  S
C2268      H2280   1.081       .  S
C2269      C2270   1.385       .  A
C2269      H2281   1.082       .  S
C2270      H2282   1.082       .  S
C2271      C2272   1.385       .  A
C2271      H2283   1.082       .  S
C2272      H2284   1.082       .  S
C2273      C2422   1.446       .  S
C2274      C2416   1.446       .  S
C2275      C2409   1.446       .  S
C2276      C2411   1.446       .  S
C2287      C2405   1.471       .  S
C2287      C2407   1.472       .  S
C2287      C2428   1.468       .  S
N2288      C2292   1.350       .  A
N2288      H2320   1.041       .  S
N2289      C2296   1.348       .  A
N2289      C2297   1.348       .  A
N2290      C2294   1.350       .  A
N2290      H2321   1.041       .  S
N2291      C2298   1.348       .  A
N2291      C2299   1.348       .  A
C2292      C2300   1.388       .  A
C2292      C2308   1.405       .  A
C2293      C2309   1.405       .  A
C2293      C2301   1.388       .  A
C2294      C2302   1.388       .  A
C2294      C2311   1.405       .  A
C2295      C2310   1.405       .  A
C2295      C2303   1.388       .  A
C2296      C2308   1.410       .  A
C2296      C2304   1.386       .  A
C2297      C2311   1.410       .  A
C2297      C2305   1.386       .  A
C2298      C2306   1.386       .  A
C2298      C2309   1.410       .  A
C2299      C2307   1.386       .  A
C2299      C2310   1.410       .  A
C2300      H2312   1.081       .  S
C2301      H2313   1.081       .  S
C2302      H2314   1.081       .  S
C2303      H2315   1.081       .  S
C2304      C2305   1.387       .  A
C2304      H2316   1.082       .  S
C2305      H2317   1.082       .  S
C2306      C2307   1.387       .  A
C2306      H2318   1.082       .  S
C2307      H2319   1.082       .  S
C2308      C2439   1.446       .  S
C2309      C2408   1.446       .  S
C2310      C2403   1.446       .  S
C2311      C2420   1.446       .  S
C2322      C2401   1.471       .  S
C2322      C2404   1.472       .  S
C2322      C2412   1.468       .  S
N2323      C2328   1.351       .  A
N2323      H2355   1.040       .  S
N2324      C2331   1.349       .  A
N2324      C2332   1.349       .  A
N2325      C2330   1.351       .  A
N2325      H2356   1.040       .  S
N2326      C2333   1.349       .  A
N2326      C2334   1.349       .  A
C2327      C2335   1.388       .  A
C2327      C2343   1.407       .  A
C2328      C2344   1.407       .  A
C2328      C2336   1.388       .  A
C2329      C2337   1.388       .  A
C2329      C2346   1.407       .  A
C2330      C2345   1.407       .  A
C2330      C2338   1.388       .  A
C2331      C2343   1.410       .  A
C2331      C2339   1.386       .  A
C2332      C2346   1.410       .  A
C2332      C2340   1.386       .  A
C2333      C2341   1.386       .  A
C2333      C2344   1.410       .  A
C2334      C2342   1.386       .  A
C2334      C2345   1.410       .  A
C2335      H2347   1.081       .  S
C2336      H2348   1.081       .  S
C2337      H2349   1.081       .  S
C2338      H2350   1.081       .  S
C2339      C2340   1.384       .  A
C2339      H2351   1.082       .  S
C2340      H2352   1.082       .  S
C2341      C2342   1.384       .  A
C2341      H2353   1.082       .  S
C2342      H2354   1.082       .  S
C2343      C2399   1.447       .  S
C2344      C2398   1.447       .  S
C2345      C2406   1.447       .  S
C2346      C2402   1.447       .  S
C2357      C2395   1.472       .  S
C2357      C2400   1.471       .  S
C2357      C2410   1.468       .  S
C2358      C2393   1.472       .  S
C2358      C2397   1.471       .  S
C2358      C2425   1.468       .  S
N2359      C2363   1.350       .  A
N2359      H2391   1.041       .  S
N2360      C2367   1.348       .  A
N2360      C2368   1.348       .  A
N2361      C2365   1.350       .  A
N2361      H2392   1.041       .  S
N2362      C2369   1.348       .  A
N2362      C2370   1.348       .  A
C2363      C2371   1.388       .  A
C2363      C2379   1.405       .  A
C2364      C2380   1.405       .  A
C2364      C2372   1.388       .  A
C2365      C2373   1.388       .  A
C2365      C2382   1.405       .  A
C2366      C2381   1.405       .  A
C2366      C2374   1.388       .  A
C2367      C2379   1.410       .  A
C2367      C2375   1.386       .  A
C2368      C2382   1.410       .  A
C2368      C2376   1.386       .  A
C2369      C2377   1.386       .  A
C2369      C2380   1.410       .  A
C2370      C2378   1.386       .  A
C2370      C2381   1.410       .  A
C2371      H2383   1.081       .  S
C2372      H2384   1.081       .  S
C2373      H2385   1.081       .  S
C2374      H2386   1.081       .  S
C2375      C2376   1.387       .  A
C2375      H2387   1.082       .  S
C2376      H2388   1.082       .  S
C2377      C2378   1.387       .  A
C2377      H2389   1.082       .  S
C2378      H2390   1.082       .  S
C2379      C2432   1.446       .  S
C2380      C2394   1.446       .  S
C2381      C2396   1.446       .  S
C2382      C2413   1.446       .  S
C2393      C2394   1.208       .  T
C2395      C2396   1.208       .  T
C2397      C2398   1.208       .  T
C2399      C2400   1.208       .  T
C2401      C2402   1.208       .  T
C2403      C2404   1.208       .  T
C2405      C2406   1.208       .  T
C2407      C2408   1.208       .  T
C2409      C2410   1.208       .  T
C2411      C2412   1.208       .  T
C2413      C2414   1.208       .  T
C2415      C2416   1.208       .  T
C2417      C2418   1.208       .  T
C2419      C2420   1.208       .  T
C2421      C2422   1.208       .  T
C2423      C2424   1.208       .  T
C2425      C2426   1.208       .  T
C2427      C2428   1.208       .  T
C2429      C2430   1.208       .  T
C2431      C2432   1.208       .  T
C2433      C2434   1.208       .  T
C2435      C2436   1.208       .  T
C2437      C2438   1.208       .  T
C2439      C2440   1.208       .  T
