geometry optimzed in LAMMPS
_audit_creation_date              2020-12-01 
_audit_creation_method            'lammps2cif' 
_symmetry_space_group_name_H-M    'P1' 
_symmetry_Int_Tables_number       1 
_symmetry_cell_setting            triclinic 
loop_ 
_symmetry_equiv_pos_as_xyz 
  x,y,z 
_cell_length_a                    31.75596011 
_cell_length_b                    32.06301372731713 
_cell_length_c                    65.52286142731434 
_cell_angle_alpha                 90.08661192843637 
_cell_angle_beta                  90.14413670268432 
_cell_angle_gamma                 119.41850924911924 
loop_ 
_atom_site_label 
_atom_site_type_symbol 
_atom_site_fract_x 
_atom_site_fract_y 
_atom_site_fract_z 
_atom_site_charge 
O1          O  0.77892564  0.24014832  0.90394020    -0.56700
C2          C  0.71463268  0.21839955  0.95642690     0.75900
O3          O  0.81390723  0.18567585  0.96793040    -0.57800
C4          C  0.79746188  0.21823685  0.89486726     0.75900
C5          C  0.87754846  0.33034675  0.94436167     0.78300
Cd6        Cd  0.80223846  0.23016602  0.93878053     1.37500
O7          O  0.71772715  0.21547403  0.93726610    -0.56700
O8          O  0.83286820  0.31583345  0.94539244    -0.55500
C9          C  0.79514355  0.14533598  0.95901405     0.78300
O10         O  0.88940101  0.29824653  0.94160599    -0.57900
O11         O  0.75125667  0.22644098  0.96689703    -0.56300
O12         O  0.81866066  0.20185509  0.90597600    -0.56300
O13         O  0.78420442  0.14513651  0.94043955    -0.55500
O14         O  0.74991248  0.20190645  0.74245670    -0.56700
C15         C  0.75803178  0.24763762  0.68908886     0.75900
O16         O  0.79566807  0.14337915  0.68449463    -0.57800
C17         C  0.75829376  0.17440255  0.75346641     0.75900
C18         C  0.64830562  0.09280752  0.70361266     0.78300
Cd19       Cd  0.74921271  0.16498269  0.70947656     1.37500
O20         O  0.75866139  0.24545065  0.70836528    -0.56700
O21         O  0.66494189  0.13668505  0.69991483    -0.55500
C22         C  0.83672491  0.17219772  0.69201763     0.78300
O23         O  0.67885492  0.08023140  0.70897727    -0.57900
O24         O  0.75341994  0.21167338  0.67922108    -0.56300
O25         O  0.76192484  0.14147965  0.74429671    -0.56300
O26         O  0.83661737  0.19333242  0.70827123    -0.55500
O27         O  0.16976387  0.77840173  0.74335433    -0.56700
C28         C  0.20263101  0.72897310  0.69561895     0.75900
O29         O  0.17234616  0.83233420  0.68117619    -0.57800
C30         C  0.19312658  0.81494821  0.75454132     0.75900
C31         C  0.31355672  0.88584485  0.70789611     0.78300
Cd32       Cd  0.21114755  0.81661169  0.71145420     1.37500
O33         O  0.20746438  0.73728946  0.71460577    -0.56700
O34         O  0.29736261  0.84218206  0.71209957    -0.55500
C35         C  0.13238520  0.81953892  0.68998391     0.78300
O36         O  0.28227969  0.89879356  0.70451906    -0.57900
O37         O  0.20136483  0.76037649  0.68445498    -0.56300
O38         O  0.22364035  0.85300599  0.74576632    -0.56300
O39         O  0.13105227  0.81119831  0.70887188    -0.55500
O40         O  0.20380824  0.79686691  0.90748383    -0.56700
C41         C  0.24236698  0.76953558  0.95899274     0.75900
O42         O  0.16792110  0.84611162  0.93959427    -0.57800
C43         C  0.16697454  0.78147926  0.89602515     0.75900
C44         C  0.08541491  0.66295320  0.94139429     0.78300
Cd45       Cd  0.15838664  0.76437949  0.93938195     1.37500
O46         O  0.24090452  0.77509933  0.93995148    -0.56700
O47         O  0.12900978  0.67796274  0.93663889    -0.55500
C48         C  0.15672146  0.84643445  0.95803688     0.78300
O49         O  0.07395898  0.69482157  0.94548795    -0.57900
O50         O  0.20522129  0.76158492  0.96901398    -0.56300
O51         O  0.12608598  0.75873711  0.90455958    -0.56300
O52         O  0.14123786  0.80725524  0.96752960    -0.55500
O53         O  0.76126617  0.58015780  0.40832167    -0.56700
C54         C  0.71808145  0.50995981  0.35755940     0.75900
O55         O  0.81924070  0.64609026  0.34751145    -0.57800
C56         C  0.79798014  0.59436121  0.41976374     0.75900
C57         C  0.87812076  0.55817019  0.37146772     0.78300
Cd58       Cd  0.80418298  0.58713262  0.37586030     1.37500
O59         O  0.72398355  0.51283877  0.37670510    -0.56700
O60         O  0.83385970  0.52917099  0.37435985    -0.55500
C61         C  0.80624887  0.67172484  0.35744530     0.78300
O62         O  0.88953810  0.60190796  0.36972781    -0.57900
O63         O  0.75162169  0.54212484  0.34707845    -0.56300
O64         O  0.83784049  0.60649536  0.41098861    -0.56300
O65         O  0.79698870  0.66134906  0.37609273    -0.55500
O66         O  0.78597732  0.57380958  0.57293857    -0.56700
C67         C  0.76551999  0.51077311  0.62582097     0.75900
O68         O  0.79693954  0.64842557  0.63288598    -0.57800
C69         C  0.76426839  0.58958890  0.56183827     0.75900
C70         C  0.65318203  0.55450417  0.61186424     0.78300
Cd71       Cd  0.75505678  0.58508918  0.60600291     1.37500
O72         O  0.76383833  0.51279297  0.60656800    -0.56700
O73         O  0.66959358  0.52573657  0.61158965    -0.55500
C74         C  0.83740916  0.66869319  0.62392057     0.78300
O75         O  0.68397228  0.59863067  0.61011605    -0.57900
O76         O  0.76282929  0.54311353  0.63581543    -0.56300
O77         O  0.73854826  0.60382778  0.57100340    -0.56300
O78         O  0.83814647  0.65406300  0.60610598    -0.55500
O79         O  0.41286747  0.21737131  0.07714531    -0.56700
C80         C  0.45501983  0.20982746  0.02491122     0.75900
O81         O  0.32307936  0.18056135  0.01505480    -0.57800
C82         C  0.37654028  0.21067145  0.08751302     0.75900
C83         C  0.41448209  0.32510474  0.04022727     0.78300
Cd84       Cd  0.38141311  0.22266265  0.04387840     1.37500
O85         O  0.45058097  0.20802828  0.04413529    -0.56700
O86         O  0.44218922  0.30742237  0.04043409    -0.55500
C87         C  0.30192388  0.13998920  0.02365843     0.78300
O88         O  0.36949490  0.29537438  0.04093430    -0.57900
O89         O  0.42511657  0.21655255  0.01469680    -0.56300
O90         O  0.34072000  0.20782381  0.07771398    -0.56300
O91         O  0.31390312  0.13883185  0.04197699    -0.55500
O92         O  0.41992111  0.20365473  0.23907732    -0.56700
C93         C  0.45526863  0.25413939  0.29417972     0.75900
O94         O  0.31781327  0.14734823  0.29745078    -0.57800
C95         C  0.38121295  0.17975349  0.22905151     0.75900
C96         C  0.41364087  0.09612001  0.27794881     0.78300
Cd97       Cd  0.38517355  0.16990031  0.27267790     1.37500
O98         O  0.45247545  0.25285871  0.27492638    -0.56700
O99         O  0.44261909  0.13952167  0.27419265    -0.55500
C100        C  0.30071307  0.17127549  0.28886116     0.78300
O101        O  0.36946006  0.08481252  0.27943342    -0.57900
O102        O  0.42541507  0.21686381  0.30355763    -0.56300
O103        O  0.34446382  0.15018534  0.23900937    -0.56300
O104        O  0.31984842  0.19095218  0.27214404    -0.55500
O105        O  0.19790280  0.39799676  0.41192321    -0.56700
C106        C  0.24885437  0.47361197  0.36368026     0.75900
O107        O  0.13691542  0.34055035  0.34937336    -0.57800
C108        C  0.16044370  0.38307234  0.42283064     0.75900
C109        C  0.09052108  0.43269013  0.37269598     0.78300
Cd110      Cd  0.15903860  0.39767161  0.37907005     1.37500
O111        O  0.23472945  0.47579497  0.38150878    -0.56700
O112        O  0.13566838  0.45962447  0.37122326    -0.55500
C113        C  0.15374183  0.31565829  0.35721776     0.78300
O114        O  0.07626084  0.38875560  0.37597795    -0.57900
O115        O  0.22239779  0.43632821  0.35344101    -0.56300
O116        O  0.12178014  0.37399246  0.41363346    -0.56300
O117        O  0.16752080  0.32505993  0.37557421    -0.55500
O118        O  0.17698627  0.40797308  0.57614564    -0.56700
C119        C  0.21264770  0.47781842  0.62858275     0.75900
O120        O  0.13355493  0.32682435  0.60842968    -0.57800
C121        C  0.19481426  0.38897573  0.56456581     0.75900
C122        C  0.31730358  0.42863257  0.61054394     0.78300
Cd123      Cd  0.21514727  0.39982800  0.60790264     1.37500
O124        O  0.20735861  0.47259866  0.60941230    -0.56700
O125        O  0.30163621  0.45682085  0.60604798    -0.55500
C126        C  0.13361796  0.31841245  0.62723524     0.78300
O127        O  0.28565711  0.38530660  0.61377033    -0.57900
O128        O  0.21889222  0.44713344  0.63813918    -0.56300
O129        O  0.22193015  0.37524878  0.57291956    -0.56300
O130        O  0.17299290  0.34382711  0.63664086    -0.55500
O131        O  0.53392308  0.78013150  0.24082624    -0.56700
C132        C  0.49901315  0.73006146  0.29571039     0.75900
O133        O  0.63435093  0.83506651  0.30199364    -0.57800
C134        C  0.57166469  0.80544559  0.23047946     0.75900
C135        C  0.54137729  0.88743110  0.27980232     0.78300
Cd136      Cd  0.57035880  0.81436930  0.27474159     1.37500
O137        O  0.51024107  0.72777918  0.27736533    -0.56700
O138        O  0.51231146  0.84308114  0.28058865    -0.55500
C139        C  0.65628330  0.81684979  0.29262392     0.78300
O140        O  0.58543745  0.89959113  0.27691754    -0.57900
O141        O  0.52108877  0.77055935  0.30428108    -0.56300
O142        O  0.60846779  0.83542679  0.24039026    -0.56300
O143        O  0.64093434  0.80119917  0.27489575    -0.55500
O144        O  0.54622891  0.75853648  0.07832308    -0.56700
C145        C  0.50298879  0.76883665  0.02471078     0.75900
O146        O  0.63777254  0.84918698  0.04209432    -0.57800
C147        C  0.58447527  0.77170687  0.08859973     0.75900
C148        C  0.55311253  0.66026142  0.03855924     0.78300
Cd149      Cd  0.58053203  0.76162445  0.04414259     1.37500
O150        O  0.50700626  0.76926190  0.04395354    -0.56700
O151        O  0.52430731  0.67659807  0.03754340    -0.55500
C152        C  0.65663942  0.84957247  0.02508488     0.78300
O153        O  0.59740910  0.69111957  0.04109972    -0.57900
O154        O  0.53503600  0.76578587  0.01446142    -0.56300
O155        O  0.62202793  0.78061609  0.07852012    -0.56300
O156        O  0.64429115  0.80879234  0.01736383    -0.55500
C157        C  0.55767706  0.77007034  0.14080460     0.30900
C158        C  0.52754992  0.75864560  0.15797779    -0.35400
C159        C  0.55073220  0.77743652  0.17674255     0.16900
C160        C  0.60017757  0.80590298  0.17849894     0.22700
C161        C  0.63039229  0.81694765  0.16133119    -0.33600
C162        C  0.60721636  0.79773271  0.14255987     0.16800
O163        O  0.54343442  0.75712278  0.12176172    -0.25600
C164        C  0.58434099  0.77623809  0.11108989     0.06600
C165        C  0.62528019  0.80172487  0.12326935    -0.30500
O166        O  0.61409668  0.82000851  0.19750607    -0.22300
C167        C  0.57304447  0.80002369  0.20810777    -0.02300
C168        C  0.53248210  0.77303873  0.19595882    -0.16700
H169        H  0.48868260  0.73675339  0.15677403     0.21300
H170        H  0.66923146  0.83903900  0.16252355     0.19600
H171        H  0.66267448  0.82129262  0.11852786     0.19600
H172        H  0.49504160  0.75312729  0.20062499     0.15500
C173        C  0.34458157  0.55219307  0.33281289     0.30900
C174        C  0.37172991  0.56734084  0.31480028    -0.35400
C175        C  0.40650861  0.61598115  0.31390972     0.16900
C176        C  0.41414782  0.64751638  0.32969666     0.22700
C177        C  0.38718067  0.63229857  0.34777226    -0.33600
C178        C  0.35239219  0.58362963  0.34866550     0.16800
O179        O  0.30826643  0.50902157  0.33635867    -0.25600
C180        C  0.29275959  0.51273620  0.35475041     0.06600
C181        C  0.31902262  0.55823388  0.36323740    -0.30500
O182        O  0.44780599  0.69159525  0.32542144    -0.22300
C183        C  0.46191719  0.68824581  0.30666915    -0.02300
C184        C  0.43743845  0.64207349  0.29871422    -0.16700
H185        H  0.36545625  0.54309540  0.30219057     0.21300
H186        H  0.39238702  0.65685590  0.36012249     0.19600
H187        H  0.31283121  0.57121499  0.37755247     0.19600
H188        H  0.44158142  0.62970479  0.28386663     0.15500
C189        C  0.19472150  0.37541495  0.51142840     0.30900
C190        C  0.21367406  0.37198167  0.49258063    -0.35400
C191        C  0.18847980  0.37316522  0.47518416     0.16900
C192        C  0.14678168  0.37640888  0.47618557     0.22700
C193        C  0.12774195  0.37984754  0.49509630    -0.33600
C194        C  0.15364439  0.37975750  0.51253575     0.16800
O195        O  0.21393035  0.37723307  0.52950650    -0.25600
C196        C  0.18524959  0.38345913  0.54243378     0.06600
C197        C  0.14710585  0.38536711  0.53275408    -0.30500
O198        O  0.13025969  0.37870337  0.45790871    -0.22300
C199        C  0.16219561  0.37749139  0.44509900    -0.02300
C200        C  0.19912729  0.37406551  0.45501800    -0.16700
H201        H  0.24662497  0.36996807  0.49153831     0.21300
H202        H  0.09587174  0.38378463  0.49611394     0.19600
H203        H  0.11905703  0.39059349  0.53960236     0.19600
H204        H  0.22999658  0.37355428  0.44832838     0.15500
C205        C  0.47479550  0.94794879  0.28531476     0.30900
C206        C  0.43292711  0.95200773  0.28812407    -0.35400
C207        C  0.43806766  0.99769654  0.28489024     0.16900
C208        C  0.48158233  0.03655008  0.27942811     0.22700
C209        C  0.52339608  0.03257100  0.27681262    -0.33600
C210        C  0.51823317  0.98700980  0.27994783     0.16800
O211        O  0.47763697  0.90825093  0.28642083    -0.25600
C212        C  0.52353950  0.92205273  0.28180274     0.06600
C213        C  0.55056690  0.97080665  0.27772524    -0.30500
O214        O  0.47830043  0.07554070  0.27655182    -0.22300
C215        C  0.43205458  0.06191296  0.28011819    -0.02300
C216        C  0.40512952  0.01368872  0.28544485    -0.16700
H217        H  0.39854413  0.92145352  0.29208856     0.21300
H218        H  0.55742928  0.06278689  0.27223218     0.19600
H219        H  0.58798519  0.99094202  0.27305414     0.19600
H220        H  0.36696938  0.99336550  0.28892423     0.15500
C221        C  0.18708758  0.23307000  0.33896243     0.30900
C222        C  0.20888950  0.20424280  0.34059854    -0.35400
C223        C  0.22464920  0.19363741  0.32231450     0.16900
C224        C  0.21969373  0.21056361  0.30362586     0.22700
C225        C  0.19657153  0.23830514  0.30190215    -0.33600
C226        C  0.18052641  0.24872050  0.32023448     0.16800
O227        O  0.17563671  0.25224390  0.35433641    -0.25600
C228        C  0.16071792  0.28007336  0.34545936     0.06600
C229        C  0.16259097  0.27893908  0.32421205    -0.30500
O230        O  0.24332214  0.20225365  0.28900966    -0.22300
C231        C  0.26304847  0.17908404  0.29840820    -0.02300
C232        C  0.25210272  0.17228207  0.31909235    -0.16700
H233        H  0.21578262  0.19327365  0.35527195     0.21300
H234        H  0.19394889  0.25320095  0.28744777     0.19600
H235        H  0.15609286  0.30067481  0.31340196     0.19600
H236        H  0.26631581  0.15797092  0.33045844     0.15500
C237        C  0.48233158  0.53455363  0.03720538     0.30900
C238        C  0.43877710  0.49063619  0.03707061    -0.35400
C239        C  0.44296310  0.44906943  0.03819699     0.16900
C240        C  0.48709939  0.45068539  0.03934824     0.22700
C241        C  0.53073224  0.49467998  0.03962064    -0.33600
C242        C  0.52653728  0.53634980  0.03850047     0.16800
O243        O  0.48644371  0.57753483  0.03657747    -0.25600
C244        C  0.53391362  0.60771274  0.03750267     0.06600
C245        C  0.56078837  0.58403801  0.03872854    -0.30500
O246        O  0.48264477  0.40752345  0.04012636    -0.22300
C247        C  0.43502924  0.37771863  0.03948130    -0.02300
C248        C  0.40848746  0.40163183  0.03836264    -0.16700
H249        H  0.40397962  0.48902922  0.03619888     0.21300
H250        H  0.56550552  0.49627485  0.04066112     0.19600
H251        H  0.59961390  0.59960018  0.03999478     0.19600
H252        H  0.36961383  0.38633495  0.03771307     0.15500
C253        C  0.40204657  0.20644613  0.17695737     0.30900
C254        C  0.42974521  0.22351958  0.15916778    -0.35400
C255        C  0.40370676  0.21475570  0.14087130     0.16900
C256        C  0.35384598  0.19169325  0.14007221     0.22700
C257        C  0.32610582  0.17453659  0.15789469    -0.33600
C258        C  0.35216436  0.18250787  0.17618858     0.16800
O259        O  0.41890798  0.20924181  0.19562512    -0.25600
C260        C  0.37930266  0.18626277  0.20693900     0.06600
C261        C  0.33674232  0.16896943  0.19568846    -0.30500
O262        O  0.33716607  0.18734007  0.12123055    -0.22300
C263        C  0.37697156  0.20735082  0.10987355    -0.02300
C264        C  0.41929955  0.22487892  0.12127482    -0.16700
H265        H  0.46884065  0.24158279  0.15952198     0.21300
H266        H  0.28700845  0.15560669  0.15749438     0.19600
H267        H  0.29990155  0.14903950  0.20109313     0.19600
H268        H  0.45622252  0.24265868  0.11586204     0.15500
C269        C  0.44410844  0.49564533  0.61102259     0.30900
C270        C  0.48927291  0.53721940  0.60897138    -0.35400
C271        C  0.53004827  0.53160435  0.61172374     0.16900
C272        C  0.52659723  0.48795640  0.61608195     0.22700
C273        C  0.48134298  0.44635844  0.61827971    -0.33600
C274        C  0.44048076  0.45201092  0.61558505     0.16800
O275        O  0.40152572  0.49281842  0.60872136    -0.25600
C276        C  0.36992033  0.44679615  0.61186123     0.06600
C277        C  0.39207592  0.41958438  0.61624853    -0.30500
O278        O  0.56935909  0.49054429  0.61715578    -0.22300
C279        C  0.60068129  0.53651850  0.61360153    -0.02300
C280        C  0.57823290  0.56381013  0.61018780    -0.16700
H281        H  0.49237682  0.57148964  0.60525578     0.21300
H282        H  0.47823087  0.41189995  0.62158326     0.19600
H283        H  0.37506652  0.38158274  0.61930367     0.19600
H284        H  0.59490107  0.60144408  0.60641851     0.15500
C285        C  0.94049307  0.49291643  0.37320438     0.30900
C286        C  0.94499230  0.45189190  0.37614927    -0.35400
C287        C  0.99138831  0.45761377  0.37359404     0.16900
C288        C  0.03099755  0.50088503  0.36864014     0.22700
C289        C  0.02656322  0.54220766  0.36579571    -0.33600
C290        C  0.97985385  0.53639097  0.36824550     0.16800
O291        O  0.90021735  0.49513017  0.37473515    -0.25600
C292        C  0.91348337  0.54065194  0.37074295     0.06600
C293        C  0.96279839  0.56817102  0.36662483    -0.30500
O294        O  0.07107310  0.49791966  0.36729115    -0.22300
C295        C  0.05674363  0.45202921  0.37130845    -0.02300
C296        C  0.00752339  0.42541291  0.37535178    -0.16700
H297        H  0.91429940  0.41773313  0.38012285     0.21300
H298        H  0.05731692  0.57643034  0.36194676     0.19600
H299        H  0.98302548  0.60592185  0.36303015     0.19600
H300        H  0.98682468  0.38794818  0.37939139     0.15500
C301        C  0.73303824  0.79629606  0.32478925     0.30900
C302        C  0.74698623  0.78566624  0.34362070    -0.35400
C303        C  0.77127781  0.75892338  0.34278917     0.16900
C304        C  0.78189285  0.74425636  0.32464172     0.22700
C305        C  0.76920330  0.75608062  0.30581058    -0.33600
C306        C  0.74423319  0.78209893  0.30665400     0.16800
O307        O  0.70336292  0.81385909  0.32217319    -0.25600
C308        C  0.69539914  0.81088223  0.30209527     0.06600
C309        C  0.72039098  0.79187087  0.29171387    -0.30500
O310        O  0.79862854  0.71412728  0.32740472    -0.22300
C311        C  0.79893634  0.70936623  0.34760565    -0.02300
C312        C  0.78260875  0.73677596  0.35791637    -0.16700
H313        H  0.73634503  0.79441870  0.35797854     0.21300
H314        H  0.77508264  0.74273418  0.29152597     0.19600
H315        H  0.71763478  0.78234377  0.27571459     0.19600
H316        H  0.77602583  0.73701723  0.37410691     0.15500
C317        C  0.55333082  0.36294128  0.30978283     0.30900
C318        C  0.59499833  0.40736487  0.30707093    -0.35400
C319        C  0.62221688  0.42871616  0.32469700     0.16900
C320        C  0.60922895  0.40812524  0.34377668     0.22700
C321        C  0.56721170  0.36378927  0.34652932    -0.33600
C322        C  0.54009701  0.34222677  0.32883773     0.16800
O323        O  0.52445757  0.33534398  0.29517929    -0.25600
C324        C  0.49224537  0.29645471  0.30498186     0.06600
C325        C  0.49992656  0.29879206  0.32596504    -0.30500
O326        O  0.64092452  0.43395711  0.35802105    -0.22300
C327        C  0.67458862  0.47139131  0.34784860    -0.02300
C328        C  0.66480451  0.46998054  0.32710193    -0.16700
H329        H  0.60613198  0.42355666  0.29216161     0.21300
H330        H  0.55700224  0.34678206  0.36132355     0.19600
H331        H  0.48004801  0.27161378  0.33728347     0.19600
H332        H  0.68626565  0.49549083  0.31546310     0.15500
C333        C  0.79790659  0.59451886  0.51046870     0.30900
C334        C  0.82811377  0.59807845  0.49415012    -0.35400
C335        C  0.81011051  0.59747383  0.47448953     0.16900
C336        C  0.76511841  0.59286131  0.47107673     0.22700
C337        C  0.73512082  0.58987329  0.48741083    -0.33600
C338        C  0.75349420  0.59131393  0.50709731     0.16800
O339        O  0.80742764  0.59401641  0.53007084    -0.25600
C340        C  0.76898488  0.59127224  0.53943121     0.06600
C341        C  0.73431564  0.58966227  0.52590616    -0.30500
O342        O  0.75492191  0.59148463  0.45143806    -0.22300
C343        C  0.79416885  0.59589405  0.44214743    -0.02300
C344        C  0.82975660  0.59995935  0.45573868    -0.16700
H345        H  0.86318219  0.60103931  0.49661267     0.21300
H346        H  0.69992319  0.58660522  0.48494329     0.19600
H347        H  0.69976242  0.58689770  0.52943854     0.19600
H348        H  0.86451614  0.60312837  0.45227944     0.15500
C349        C  0.22260468  0.02202353  0.00764636     0.30900
C350        C  0.19620776  0.97202653  0.01001643    -0.35400
C351        C  0.18299606  0.94467529  0.99198128     0.16900
C352        C  0.19495495  0.96511812  0.97286725     0.22700
C353        C  0.22045925  0.01521806  0.97047066    -0.33600
C354        C  0.23370678  0.04261146  0.98854182     0.16800
O355        O  0.24310545  0.05379344  0.02246315    -0.25600
C356        C  0.26728161  0.09556506  0.01284070     0.06600
C357        C  0.26250151  0.09077618  0.99167308    -0.30500
O358        O  0.18439459  0.93291743  0.95826552    -0.22300
C359        C  0.16501629  0.89119862  0.96810005    -0.02300
C360        C  0.16288723  0.89639642  0.98911463    -0.16700
H361        H  0.18879807  0.95551908  0.02492932     0.21300
H362        H  0.23151800  0.03162457  0.95560235     0.19600
H363        H  0.28061504  0.11823092  0.98026244     0.19600
H364        H  0.15209459  0.86905479  0.00070980     0.15500
C365        C  0.41832461  0.77329580  0.99171807     0.30900
C366        C  0.39785936  0.77458429  0.97288430    -0.35400
C367        C  0.35347411  0.77405865  0.97378234     0.16900
C368        C  0.33062527  0.77208357  0.99194955     0.22700
C369        C  0.35124506  0.77111949  0.01077446    -0.33600
C370        C  0.39571845  0.77188947  0.00988236     0.16800
O371        O  0.45919506  0.77273025  0.99448201    -0.25600
C372        C  0.46285571  0.77118845  0.01467454     0.06600
C373        C  0.42446740  0.77066474  0.02503355    -0.30500
O374        O  0.28873845  0.77054751  0.98919898    -0.22300
C375        C  0.28484300  0.77181811  0.96901686    -0.02300
C376        C  0.32411264  0.77421017  0.95864008    -0.16700
H377        H  0.41514448  0.77556428  0.95853458     0.21300
H378        H  0.33364626  0.76948401  0.02511430     0.19600
H379        H  0.41836842  0.76895339  0.04133288     0.19600
H380        H  0.32970940  0.77504029  0.94232125     0.15500
C381        C  0.19824846  0.64024972  0.66353263     0.30900
C382        C  0.19772690  0.61989076  0.64459156    -0.35400
C383        C  0.20367550  0.57955877  0.64503075     0.16900
C384        C  0.20951376  0.56019078  0.66290292     0.22700
C385        C  0.20989312  0.58056024  0.68198569    -0.33600
C386        C  0.20407238  0.62126830  0.68153539     0.16800
O387        O  0.19556716  0.67941754  0.66636864    -0.25600
C388        C  0.19975335  0.68599191  0.68642962     0.06600
C389        C  0.20482266  0.65077431  0.69677791    -0.30500
O390        O  0.21414587  0.52204133  0.65955100    -0.22300
C391        C  0.21111413  0.51719379  0.63930753    -0.02300
C392        C  0.20484994  0.55207828  0.62951317    -0.16700
H393        H  0.19357491  0.63489482  0.63043612     0.21300
H394        H  0.21482262  0.56601141  0.69612005     0.19600
H395        H  0.21011448  0.64836185  0.71296982     0.19600
H396        H  0.20110038  0.55618774  0.61332306     0.15500
C397        C  0.95685013  0.74833899  0.63874069     0.30900
C398        C  0.00738938  0.77266517  0.63639954    -0.35400
C399        C  0.03489359  0.78891741  0.65443038     0.16900
C400        C  0.01398308  0.78160693  0.67346803     0.22700
C401        C  0.96348066  0.75795746  0.67577874    -0.33600
C402        C  0.93599703  0.74177567  0.65775893     0.16800
O403        O  0.92459088  0.72577853  0.62420783    -0.25600
C404        C  0.88237798  0.70487261  0.63394395     0.06600
C405        C  0.88729851  0.71379751  0.65487024    -0.30500
O406        O  0.04604589  0.79452129  0.68837827    -0.22300
C407        C  0.08823500  0.81074123  0.67886993    -0.02300
C408        C  0.08351590  0.80842371  0.65768517    -0.16700
H409        H  0.02408490  0.77646220  0.62163107     0.21300
H410        H  0.94676217  0.75049281  0.69068838     0.19600
H411        H  0.85950901  0.69871948  0.66643579     0.19600
H412        H  0.11123085  0.81597136  0.64642644     0.15500
C413        C  0.15345552  0.77995547  0.84289635     0.30900
C414        C  0.12989634  0.76297192  0.82409048    -0.35400
C415        C  0.15647496  0.78681295  0.80672318     0.16900
C416        C  0.20280930  0.82522535  0.80776212     0.22700
C417        C  0.22661026  0.84189177  0.82657512    -0.33600
C418        C  0.20025702  0.81754375  0.84394703     0.16800
O419        O  0.13543026  0.76266517  0.86102028    -0.25600
C420        C  0.17130963  0.78914590  0.87385286     0.06600
C421        C  0.21267326  0.82367965  0.86410118    -0.30500
O422        O  0.22119097  0.84148637  0.78955971    -0.22300
C423        C  0.18634695  0.81273445  0.77673433    -0.02300
C424        C  0.14530577  0.77800716  0.78653931    -0.16700
H425        H  0.09361311  0.73287357  0.82306095     0.21300
H426        H  0.26329944  0.87128116  0.82757268     0.19600
H427        H  0.24669746  0.84962863  0.87089810     0.19600
H428        H  0.11254089  0.74975826  0.77975237     0.15500
C429        C  0.43352720  0.98020260  0.70294849     0.30900
C430        C  0.47110944  0.02625050  0.69808614    -0.35400
C431        C  0.51843834  0.03377434  0.70032537     0.16900
C432        C  0.52831842  0.99871981  0.70708907     0.22700
C433        C  0.49080404  0.95286027  0.71206122    -0.33600
C434        C  0.44355632  0.94520310  0.70963867     0.16800
O435        O  0.38648563  0.96467687  0.70151896    -0.25600
C436        C  0.36626553  0.91901413  0.70727588     0.06600
C437        C  0.40012026  0.90521092  0.71256877    -0.30500
O438        O  0.57522827  0.01392863  0.70853494    -0.22300
C439        C  0.59574915  0.05936088  0.70252662    -0.02300
C440        C  0.56210929  0.07351524  0.69720120    -0.16700
H441        H  0.46399625  0.05417162  0.69281989     0.21300
H442        H  0.49792630  0.92498604  0.71738743     0.19600
H443        H  0.39357350  0.87043386  0.71766106     0.19600
H444        H  0.56893594  0.10854436  0.69235354     0.15500
C445        C  0.95756644  0.21750590  0.67738136     0.30900
C446        C  0.00786667  0.24532706  0.67978490    -0.35400
C447        C  0.03551183  0.25460099  0.66199220     0.16900
C448        C  0.01513369  0.23828643  0.64299705     0.22700
C449        C  0.96469967  0.20957116  0.64063429    -0.33600
C450        C  0.93698684  0.19974272  0.65853972     0.16800
O451        O  0.92503917  0.20823672  0.69171317    -0.25600
C452        C  0.88281737  0.18336057  0.68212250     0.06600
C453        C  0.88800688  0.17678558  0.66143033    -0.30500
O454        O  0.04743350  0.25622804  0.62818039    -0.22300
C455        C  0.08911371  0.28375002  0.63788011    -0.02300
C456        C  0.08377741  0.28365445  0.65894421    -0.16700
H457        H  0.02421418  0.26042188  0.69440630     0.21300
H458        H  0.94809356  0.19748422  0.62578121     0.19600
H459        H  0.85990085  0.16054054  0.64996156     0.19600
H460        H  0.11082270  0.30525462  0.67019324     0.15500
C461        C  0.76640292  0.35616777  0.67450738     0.30900
C462        C  0.76768025  0.40007367  0.67743704    -0.35400
C463        C  0.76964730  0.42520062  0.65967097     0.16900
C464        C  0.77040624  0.40834860  0.64034224     0.22700
C465        C  0.76935615  0.36451675  0.63741747    -0.33600
C466        C  0.76718613  0.33928431  0.65518797     0.16800
O467        O  0.76340069  0.32634419  0.68895540    -0.25600
C468        C  0.76216537  0.28989753  0.67876250     0.06600
C469        C  0.76438562  0.29587926  0.65770682    -0.30500
O470        O  0.77020299  0.43673841  0.62587015    -0.22300
C471        C  0.76931231  0.47216934  0.63607022    -0.02300
C472        C  0.76915155  0.46704328  0.65714405    -0.16700
H473        H  0.76643188  0.41332875  0.69250045     0.21300
H474        H  0.76933850  0.35066520  0.62233860     0.19600
H475        H  0.76365188  0.27163326  0.64601456     0.19600
H476        H  0.76738769  0.49001884  0.66883960     0.15500
C477        C  0.02594937  0.53698960  0.94058020     0.30900
C478        C  0.02252833  0.49178761  0.93817354    -0.35400
C479        C  0.97715553  0.45181812  0.94215688     0.16900
C480        C  0.93775070  0.45614508  0.94793795     0.22700
C481        C  0.94118423  0.50139725  0.95039025    -0.33600
C482        C  0.98667981  0.54140626  0.94650979     0.16800
O483        O  0.06508142  0.57887245  0.93784735    -0.25600
C484        C  0.05104202  0.61084573  0.94211017     0.06600
C485        C  0.00242667  0.58956741  0.94754703    -0.30500
O486        O  0.89833602  0.41414336  0.95004865    -0.22300
C487        C  0.91254197  0.38227546  0.94571713    -0.02300
C488        C  0.96141238  0.40373509  0.94077778    -0.16700
H489        H  0.05315467  0.48806943  0.93345953     0.21300
H490        H  0.91042205  0.50511325  0.95488136     0.17200
H491        H  0.98192987  0.60697503  0.95182829     0.19600
H492        H  0.98180798  0.38651924  0.93606548     0.15500
C493        C  0.72679228  0.96990445  0.00966062     0.30900
C494        C  0.74819272  0.01989880  0.01201670    -0.35400
C495        C  0.76285726  0.04722659  0.99402128     0.16900
C496        C  0.75644610  0.02677005  0.97493328     0.22700
C497        C  0.73583368  0.97674938  0.97259413    -0.33600
C498        C  0.72158284  0.94938785  0.99064924     0.16800
O499        O  0.70675197  0.93764384  0.02427379    -0.25600
C500        C  0.68897686  0.89559613  0.01467564     0.06600
C501        C  0.69746913  0.90079680  0.99368754    -0.30500
O502        O  0.76868518  0.05866966  0.96009810    -0.22300
C503        C  0.78391402  0.10033121  0.96979321    -0.02300
C504        C  0.78123595  0.09526323  0.99094665    -0.16700
H505        H  0.75155139  0.03625460  0.02682236     0.21300
H506        H  0.72972735  0.96017582  0.95768569     0.19600
H507        H  0.68466639  0.87290763  0.98219648     0.19600
H508        H  0.78880332  0.12255533  0.00233996     0.15500
C509        C  0.62626649  0.21058402  0.99003819     0.30900
C510        C  0.60726241  0.21169326  0.00915878    -0.35400
C511        C  0.56121477  0.20725072  0.00898829     0.16900
C512        C  0.53575429  0.20233952  0.99119461     0.22700
C513        C  0.55459299  0.20076048  0.97205379    -0.33600
C514        C  0.60067756  0.20508290  0.97222568     0.16800
O515        O  0.66925690  0.21558072  0.98668653    -0.25600
C516        C  0.67130511  0.21312926  0.96650412     0.06600
C517        C  0.62966452  0.20651870  0.95662380    -0.30500
O518        O  0.49451886  0.20148974  0.99453924    -0.22300
C519        C  0.49347249  0.20548474  0.01470255    -0.02300
C520        C  0.53384680  0.20895891  0.02454269    -0.16700
H521        H  0.62736358  0.21653577  0.02315721     0.21300
H522        H  0.53510247  0.19737632  0.95801420     0.19600
H523        H  0.62226347  0.20399262  0.94039777     0.19600
H524        H  0.54258620  0.21400835  0.04065937     0.15500
C525        C  0.77830409  0.21875454  0.84213536     0.30900
C526        C  0.76346509  0.23141698  0.82410539    -0.35400
C527        C  0.76608158  0.20876095  0.80620394     0.16900
C528        C  0.78210465  0.17579562  0.80599034     0.22700
C529        C  0.79752511  0.16354152  0.82402295    -0.33600
C530        C  0.79501150  0.18632160  0.84195926     0.16800
O531        O  0.77737451  0.23448129  0.86065262    -0.25600
C532        C  0.79400449  0.21212199  0.87253666     0.06600
C533        C  0.80579056  0.18184653  0.86173735    -0.30500
O534        O  0.78092466  0.15862300  0.78751064    -0.22300
C535        C  0.76415294  0.18113020  0.77575513    -0.02300
C536        C  0.75438732  0.21276190  0.78657893    -0.16700
H537        H  0.75033780  0.25682339  0.82406826     0.21300
H538        H  0.81020440  0.13779292  0.82409185     0.19600
H539        H  0.81921094  0.15908042  0.86766626     0.19600
H540        H  0.74071352  0.23544675  0.78078945     0.15500
loop_ 
_geom_bond_atom_site_label_1 
_geom_bond_atom_site_label_2 
_geom_bond_distance 
_geom_bond_site_symmetry_2 
_ccdc_geom_bond_type 
O1            C4   1.265       .  A
O1           Cd6   2.467       .  S
C2           O11   1.261       .  A
C2            O7   1.266       .  A
C2          C516   1.461       .  S
O3            C9   1.268       .  A
O3           Cd6   2.519       .  S
C4           O12   1.267       .  A
C4          C532   1.473       .  S
C5           O10   1.270       .  A
C5            O8   1.259       .  A
C5          C487   1.482       .  S
Cd6          O13   2.498       .  S
Cd6          O12   2.486       .  S
Cd6          O11   2.420       .  S
Cd6           O7   2.488       .  S
Cd6          O10   2.554       .  S
Cd6           O8   2.459       .  S
C9           O13   1.264       .  A
C9          C503   1.486       .  S
O14          C17   1.265       .  A
O14         Cd19   2.457       .  S
C15          O24   1.265       .  A
C15          O20   1.266       .  A
C15         C468   1.463       .  S
O16          C22   1.268       .  A
O16         Cd19   2.520       .  S
C17          O25   1.268       .  A
C17         C535   1.474       .  S
C18          O23   1.269       .  A
C18          O21   1.260       .  A
C18         C439   1.477       .  S
Cd19         O26   2.462       .  S
Cd19         O25   2.497       .  S
Cd19         O24   2.450       .  S
Cd19         O20   2.448       .  S
Cd19         O23   2.532       .  S
Cd19         O21   2.446       .  S
C22          O26   1.262       .  A
C22         C452   1.477       .  S
O27          C30   1.265       .  A
O27         Cd32   2.457       .  S
C28          O37   1.262       .  A
C28          O33   1.265       .  A
C28         C388   1.464       .  S
O29          C35   1.267       .  A
O29         Cd32   2.512       .  S
C30          O38   1.266       .  A
C30         C423   1.467       .  S
C31          O36   1.270       .  A
C31          O34   1.263       .  A
C31         C436   1.479       .  S
Cd32         O39   2.468       .  S
Cd32         O38   2.471       .  S
Cd32         O37   2.432       .  S
Cd32         O33   2.497       .  S
Cd32         O36   2.533       .  S
Cd32         O34   2.442       .  S
C35          O39   1.263       .  A
C35         C407   1.477       .  S
O40          C43   1.266       .  A
O40         Cd45   2.466       .  S
C41          O50   1.264       .  A
C41          O46   1.265       .  A
C41         C375   1.468       .  S
O42          C48   1.262       .  A
O42         Cd45   2.486       .  S
C43          O51   1.267       .  A
C43         C420   1.469       .  S
C44          O49   1.270       .  A
C44          O47   1.262       .  A
C44         C484   1.481       .  S
Cd45         O52   2.514       .  S
Cd45         O51   2.469       .  S
Cd45         O50   2.471       .  S
Cd45         O46   2.470       .  S
Cd45         O49   2.541       .  S
Cd45         O47   2.457       .  S
C48          O52   1.266       .  A
C48         C359   1.480       .  S
O53          C56   1.266       .  A
O53         Cd58   2.480       .  S
C54          O63   1.263       .  A
C54          O59   1.264       .  A
C54         C327   1.469       .  S
O55          C61   1.266       .  A
O55         Cd58   2.526       .  S
C56          O64   1.267       .  A
C56         C343   1.475       .  S
C57          O62   1.270       .  A
C57          O60   1.263       .  A
C57         C292   1.483       .  S
Cd58         O65   2.500       .  S
Cd58         O64   2.481       .  S
Cd58         O63   2.457       .  S
Cd58         O59   2.491       .  S
Cd58         O62   2.545       .  S
Cd58         O60   2.464       .  S
C61          O65   1.264       .  A
C61         C311   1.484       .  S
O66          C69   1.265       .  A
O66         Cd71   2.479       .  S
C67          O76   1.264       .  A
C67          O72   1.266       .  A
C67         C471   1.465       .  S
O68          C74   1.266       .  A
O68         Cd71   2.514       .  S
C69          O77   1.267       .  A
C69         C340   1.475       .  S
C70          O75   1.270       .  A
C70          O73   1.263       .  A
C70         C279   1.477       .  S
Cd71         O78   2.474       .  S
Cd71         O77   2.490       .  S
Cd71         O76   2.454       .  S
Cd71         O72   2.467       .  S
Cd71         O75   2.514       .  S
Cd71         O73   2.461       .  S
C74          O78   1.262       .  A
C74         C404   1.477       .  S
O79          C82   1.265       .  A
O79         Cd84   2.436       .  S
C80          O89   1.263       .  A
C80          O85   1.266       .  A
C80         C519   1.459       .  S
O81          C87   1.268       .  A
O81         Cd84   2.518       .  S
C82          O90   1.268       .  A
C82         C263   1.470       .  S
C83          O88   1.271       .  A
C83          O86   1.259       .  A
C83         C247   1.481       .  S
Cd84         O91   2.485       .  S
Cd84         O90   2.495       .  S
Cd84         O89   2.429       .  S
Cd84         O85   2.461       .  S
Cd84         O88   2.546       .  S
Cd84         O86   2.452       .  S
C87          O91   1.264       .  A
C87         C356   1.482       .  S
O92          C95   1.264       .  A
O92         Cd97   2.466       .  S
C93         O102   1.264       .  A
C93          O98   1.264       .  A
C93         C324   1.466       .  S
O94         C100   1.269       .  A
O94         Cd97   2.497       .  S
C95         O103   1.267       .  A
C95         C260   1.469       .  S
C96         O101   1.269       .  A
C96          O99   1.260       .  A
C96         C215   1.482       .  S
Cd97        O104   2.477       .  S
Cd97        O103   2.473       .  S
Cd97        O102   2.466       .  S
Cd97         O98   2.465       .  S
Cd97        O101   2.560       .  S
Cd97         O99   2.456       .  S
C100        O104   1.263       .  A
C100        C231   1.477       .  S
O105        C108   1.265       .  A
O105       Cd110   2.476       .  S
C106        O115   1.262       .  A
C106        O111   1.266       .  A
C106        C180   1.466       .  S
O107        C113   1.267       .  A
O107       Cd110   2.520       .  S
C108        O116   1.265       .  A
C108        C199   1.475       .  S
C109        O114   1.269       .  A
C109        O112   1.263       .  A
C109        C295   1.482       .  S
Cd110       O117   2.482       .  S
Cd110       O116   2.498       .  S
Cd110       O115   2.445       .  S
Cd110       O111   2.482       .  S
Cd110       O114   2.508       .  S
Cd110       O112   2.492       .  S
C113        O117   1.263       .  A
C113        C228   1.480       .  S
O118        C121   1.268       .  A
O118       Cd123   2.483       .  S
C119        O128   1.262       .  A
C119        O124   1.267       .  A
C119        C391   1.466       .  S
O120        C126   1.262       .  A
O120       Cd123   2.497       .  S
C121        O129   1.267       .  A
C121        C196   1.473       .  S
C122        O127   1.271       .  A
C122        O125   1.262       .  A
C122        C276   1.477       .  S
Cd123       O130   2.495       .  S
Cd123       O129   2.467       .  S
Cd123       O128   2.460       .  S
Cd123       O124   2.466       .  S
Cd123       O127   2.530       .  S
Cd123       O125   2.443       .  S
C126        O130   1.265       .  A
C126        C455   1.478       .  S
O131        C134   1.267       .  A
O131       Cd136   2.493       .  S
C132        O141   1.263       .  A
C132        O137   1.267       .  A
C132        C183   1.469       .  S
O133        C139   1.266       .  A
O133       Cd136   2.532       .  S
C134        O142   1.266       .  A
C134        C167   1.479       .  S
C135        O140   1.269       .  A
C135        O138   1.260       .  A
C135        C212   1.479       .  S
Cd136       O143   2.476       .  S
Cd136       O142   2.490       .  S
Cd136       O141   2.456       .  S
Cd136       O137   2.486       .  S
Cd136       O140   2.536       .  S
Cd136       O138   2.462       .  S
C139        O143   1.262       .  A
C139        C308   1.481       .  S
O144        C147   1.264       .  A
O144       Cd149   2.474       .  S
C145        O154   1.264       .  A
C145        O150   1.266       .  A
C145        C372   1.467       .  S
O146        C152   1.264       .  A
O146       Cd149   2.489       .  S
C147        O155   1.269       .  A
C147        C164   1.481       .  S
C148        O153   1.271       .  A
C148        O151   1.259       .  A
C148        C244   1.485       .  S
Cd149       O156   2.546       .  S
Cd149       O155   2.525       .  S
Cd149       O154   2.462       .  S
Cd149       O150   2.464       .  S
Cd149       O153   2.574       .  S
Cd149       O151   2.453       .  S
C152        O156   1.270       .  A
C152        C500   1.488       .  S
C157        C162   1.379       .  A
C157        C158   1.406       .  A
C157        O163   1.321       .  A
C158        C159   1.405       .  A
C158        H169   1.082       .  S
C159        C168   1.366       .  A
C159        C160   1.379       .  A
C160        C161   1.409       .  A
C160        O166   1.323       .  A
C161        C162   1.408       .  A
C161        H170   1.082       .  S
C162        C165   1.369       .  A
O163        C164   1.333       .  A
C164        C165   1.394       .  A
C165        H171   1.082       .  S
O166        C167   1.333       .  A
C167        C168   1.393       .  A
C168        H172   1.082       .  S
C173        C178   1.381       .  A
C173        C174   1.403       .  A
C173        O179   1.317       .  A
C174        C175   1.401       .  A
C174        H185   1.082       .  S
C175        C184   1.362       .  A
C175        C176   1.381       .  A
C176        C177   1.404       .  A
C176        O182   1.318       .  A
C177        C178   1.402       .  A
C177        H186   1.082       .  S
C178        C181   1.363       .  A
O179        C180   1.330       .  A
C180        C181   1.390       .  A
C181        H187   1.083       .  S
O182        C183   1.331       .  A
C183        C184   1.390       .  A
C184        H188   1.082       .  S
C189        C194   1.380       .  A
C189        C190   1.403       .  A
C189        O195   1.319       .  A
C190        C191   1.402       .  A
C190        H201   1.082       .  S
C191        C200   1.362       .  A
C191        C192   1.380       .  A
C192        C193   1.408       .  A
C192        O198   1.323       .  A
C193        C194   1.407       .  A
C193        H202   1.082       .  S
C194        C197   1.367       .  A
O195        C196   1.330       .  A
C196        C197   1.394       .  A
C197        H203   1.082       .  S
O198        C199   1.333       .  A
C199        C200   1.390       .  A
C200        H204   1.082       .  S
C205        C210   1.379       .  A
C205        C206   1.411       .  A
C205        O211   1.322       .  A
C206        C207   1.408       .  A
C206        H217   1.082       .  S
C207        C216   1.373   1_565  A
C207        C208   1.379   1_565  A
C208        C209   1.406       .  A
C208        O214   1.318       .  A
C209        C210   1.403   1_545  A
C209        H218   1.082       .  S
C210        C213   1.367       .  A
O211        C212   1.335       .  A
C212        C213   1.391       .  A
C213        H219   1.082       .  S
O214        C215   1.332       .  A
C215        C216   1.396       .  A
C216        H220   1.082   1_545  S
C221        C226   1.380       .  A
C221        C222   1.405       .  A
C221        O227   1.321       .  A
C222        C223   1.404       .  A
C222        H233   1.082       .  S
C223        C232   1.364       .  A
C223        C224   1.380       .  A
C224        C225   1.409       .  A
C224        O230   1.323       .  A
C225        C226   1.408       .  A
C225        H234   1.083       .  S
C226        C229   1.369       .  A
O227        C228   1.332       .  A
C228        C229   1.395       .  A
C229        H235   1.083       .  S
O230        C231   1.334       .  A
C231        C232   1.391       .  A
C232        H236   1.082       .  S
C237        C242   1.379       .  A
C237        C238   1.408       .  A
C237        O243   1.320       .  A
C238        C239   1.405       .  A
C238        H249   1.082       .  S
C239        C248   1.370       .  A
C239        C240   1.379       .  A
C240        C241   1.411       .  A
C240        O246   1.321       .  A
C241        C242   1.408       .  A
C241        H250   1.082       .  S
C242        C245   1.374       .  A
O243        C244   1.334       .  A
C244        C245   1.395       .  A
C245        H251   1.082       .  S
O246        C247   1.335       .  A
C247        C248   1.392       .  A
C248        H252   1.082       .  S
C253        C258   1.381       .  A
C253        C254   1.402       .  A
C253        O259   1.319       .  A
C254        C255   1.402       .  A
C254        H265   1.082       .  S
C255        C264   1.359       .  A
C255        C256   1.381       .  A
C256        C257   1.405       .  A
C256        O262   1.322       .  A
C257        C258   1.405       .  A
C257        H266   1.082       .  S
C258        C261   1.363       .  A
O259        C260   1.331       .  A
C260        C261   1.391       .  A
C261        H267   1.082       .  S
O262        C263   1.331       .  A
C263        C264   1.390       .  A
C264        H268   1.082       .  S
C269        C274   1.380       .  A
C269        C270   1.405       .  A
C269        O275   1.318       .  A
C270        C271   1.403       .  A
C270        H281   1.082       .  S
C271        C280   1.366       .  A
C271        C272   1.379       .  A
C272        C273   1.408       .  A
C272        O278   1.321       .  A
C273        C274   1.406       .  A
C273        H282   1.082       .  S
C274        C277   1.370       .  A
O275        C276   1.332       .  A
C276        C277   1.393       .  A
C277        H283   1.082       .  S
O278        C279   1.334       .  A
C279        C280   1.392       .  A
C280        H284   1.082       .  S
C285        C290   1.379       .  A
C285        C286   1.405       .  A
C285        O291   1.319       .  A
C286        C287   1.403       .  A
C286        H297   1.082       .  S
C287        C296   1.364   1_655  A
C287        C288   1.379   1_655  A
C288        C289   1.412       .  A
C288        O294   1.325       .  A
C289        C290   1.411   1_455  A
C289        H298   1.082       .  S
C290        C293   1.373       .  A
O291        C292   1.332       .  A
C292        C293   1.396       .  A
C293        H299   1.082       .  S
O294        C295   1.336       .  A
C295        C296   1.391       .  A
C296        H300   1.082   1_455  S
C301        C306   1.380       .  A
C301        C302   1.408       .  A
C301        O307   1.325       .  A
C302        C303   1.408       .  A
C302        H313   1.083       .  S
C303        C312   1.367       .  A
C303        C304   1.380       .  A
C304        C305   1.406       .  A
C304        O310   1.324       .  A
C305        C306   1.406       .  A
C305        H314   1.083       .  S
C306        C309   1.364       .  A
O307        C308   1.333       .  A
C308        C309   1.393       .  A
C309        H315   1.083       .  S
O310        C311   1.333       .  A
C311        C312   1.395       .  A
C312        H316   1.083       .  S
C317        C322   1.381       .  A
C317        C318   1.401       .  A
C317        O323   1.317       .  A
C318        C319   1.400       .  A
C318        H329   1.083       .  S
C319        C328   1.358       .  A
C319        C320   1.381       .  A
C320        C321   1.404       .  A
C320        O326   1.321       .  A
C321        C322   1.404       .  A
C321        H330   1.082       .  S
C322        C325   1.362       .  A
O323        C324   1.329       .  A
C324        C325   1.391       .  A
C325        H331   1.082       .  S
O326        C327   1.332       .  A
C327        C328   1.389       .  A
C328        H332   1.083       .  S
C333        C338   1.380       .  A
C333        C334   1.405       .  A
C333        O339   1.321       .  A
C334        C335   1.404       .  A
C334        H345   1.082       .  S
C335        C344   1.364       .  A
C335        C336   1.380       .  A
C336        C337   1.406       .  A
C336        O342   1.321       .  A
C337        C338   1.406       .  A
C337        H346   1.082       .  S
C338        C341   1.366       .  A
O339        C340   1.331       .  A
C340        C341   1.393       .  A
C341        H347   1.082       .  S
O342        C343   1.332       .  A
C343        C344   1.392       .  A
C344        H348   1.082       .  S
C349        C354   1.380   1_554  A
C349        C350   1.406   1_545  A
C349        O355   1.321       .  A
C350        C351   1.405   1_554  A
C350        H361   1.082       .  S
C351        C360   1.366       .  A
C351        C352   1.379       .  A
C352        C353   1.409   1_565  A
C352        O358   1.323       .  A
C353        C354   1.408       .  A
C353        H362   1.082       .  S
C354        C357   1.369       .  A
O355        C356   1.333       .  A
C356        C357   1.395   1_554  A
C357        H363   1.082       .  S
O358        C359   1.334       .  A
C359        C360   1.393       .  A
C360        H364   1.082   1_556  S
C365        C370   1.381   1_556  A
C365        C366   1.403       .  A
C365        O371   1.319       .  A
C366        C367   1.403       .  A
C366        H377   1.083       .  S
C367        C376   1.361       .  A
C367        C368   1.381       .  A
C368        C369   1.403   1_556  A
C368        O374   1.319       .  A
C369        C370   1.402       .  A
C369        H378   1.083       .  S
C370        C373   1.361       .  A
O371        C372   1.331   1_556  A
C372        C373   1.390       .  A
C373        H379   1.083       .  S
O374        C375   1.330       .  A
C375        C376   1.391       .  A
C376        H380   1.083       .  S
C381        C386   1.381       .  A
C381        C382   1.398       .  A
C381        O387   1.313       .  A
C382        C383   1.396       .  A
C382        H393   1.083       .  S
C383        C392   1.357       .  A
C383        C384   1.380       .  A
C384        C385   1.407       .  A
C384        O390   1.320       .  A
C385        C386   1.406       .  A
C385        H394   1.083       .  S
C386        C389   1.367       .  A
O387        C388   1.327       .  A
C388        C389   1.393       .  A
C389        H395   1.083       .  S
O390        C391   1.333       .  A
C391        C392   1.387       .  A
C392        H396   1.083       .  S
C397        C402   1.380       .  A
C397        C398   1.407   1_655  A
C397        O403   1.321       .  A
C398        C399   1.406       .  A
C398        H409   1.083       .  S
C399        C408   1.367       .  A
C399        C400   1.380       .  A
C400        C401   1.406   1_455  A
C400        O406   1.320       .  A
C401        C402   1.405       .  A
C401        H410   1.083       .  S
C402        C405   1.366       .  A
O403        C404   1.333       .  A
C404        C405   1.393       .  A
C405        H411   1.083       .  S
O406        C407   1.332       .  A
C407        C408   1.394       .  A
C408        H412   1.083       .  S
C413        C418   1.380       .  A
C413        C414   1.403       .  A
C413        O419   1.319       .  A
C414        C415   1.402       .  A
C414        H425   1.082       .  S
C415        C424   1.361       .  A
C415        C416   1.380       .  A
C416        C417   1.405       .  A
C416        O422   1.320       .  A
C417        C418   1.404       .  A
C417        H426   1.082       .  S
C418        C421   1.363       .  A
O419        C420   1.330       .  A
C420        C421   1.392       .  A
C421        H427   1.082       .  S
O422        C423   1.331       .  A
C423        C424   1.390       .  A
C424        H428   1.082       .  S
C429        C434   1.380       .  A
C429        C430   1.406   1_565  A
C429        O435   1.325       .  A
C430        C431   1.408       .  A
C430        H441   1.082       .  S
C431        C440   1.362       .  A
C431        C432   1.380   1_545  A
C432        C433   1.404       .  A
C432        O438   1.323   1_565  A
C433        C434   1.405       .  A
C433        H442   1.082       .  S
C434        C437   1.360       .  A
O435        C436   1.333       .  A
C436        C437   1.392       .  A
C437        H443   1.082       .  S
O438        C439   1.331       .  A
C439        C440   1.394       .  A
C440        H444   1.082       .  S
C445        C450   1.380       .  A
C445        C446   1.404   1_655  A
C445        O451   1.320       .  A
C446        C447   1.403       .  A
C446        H457   1.082       .  S
C447        C456   1.362       .  A
C447        C448   1.379       .  A
C448        C449   1.409   1_455  A
C448        O454   1.324       .  A
C449        C450   1.409       .  A
C449        H458   1.082       .  S
C450        C453   1.369       .  A
O451        C452   1.331       .  A
C452        C453   1.394       .  A
C453        H459   1.082       .  S
O454        C455   1.335       .  A
C455        C456   1.391       .  A
C456        H460   1.082       .  S
C461        C466   1.381       .  A
C461        C462   1.401       .  A
C461        O467   1.317       .  A
C462        C463   1.401       .  A
C462        H473   1.083       .  S
C463        C472   1.360       .  A
C463        C464   1.381       .  A
C464        C465   1.402       .  A
C464        O470   1.318       .  A
C465        C466   1.401       .  A
C465        H474   1.083       .  S
C466        C469   1.361       .  A
O467        C468   1.329       .  A
C468        C469   1.390       .  A
C469        H475   1.083       .  S
O470        C471   1.329       .  A
C471        C472   1.391       .  A
C472        H476   1.083       .  S
C477        C482   1.379   1_455  A
C477        C478   1.408       .  A
C477        O483   1.320       .  A
C478        C479   1.406   1_455  A
C478        H489   1.082       .  S
C479        C488   1.370       .  A
C479        C480   1.379       .  A
C480        C481   1.409       .  A
C480        O486   1.321       .  A
C481        C482   1.407       .  A
C481        H490   1.082       .  S
C482        C485   1.371   1_655  A
O483        C484   1.333       .  A
C484        C485   1.394       .  A
C485        H491   1.082   1_455  S
O486        C487   1.334       .  A
C487        C488   1.393       .  A
C488        H492   1.082       .  S
C493        C498   1.379   1_554  A
C493        C494   1.408   1_565  A
C493        O499   1.323       .  A
C494        C495   1.407   1_554  A
C494        H505   1.082       .  S
C495        C504   1.368       .  A
C495        C496   1.379       .  A
C496        C497   1.411   1_545  A
C496        O502   1.325       .  A
C497        C498   1.411       .  A
C497        H506   1.082       .  S
C498        C501   1.372       .  A
O499        C500   1.334       .  A
C500        C501   1.396   1_554  A
C501        H507   1.082       .  S
O502        C503   1.335       .  A
C503        C504   1.394       .  A
C504        H508   1.082   1_556  S
C509        C514   1.381       .  A
C509        C510   1.400   1_556  A
C509        O515   1.313       .  A
C510        C511   1.398       .  A
C510        H521   1.083       .  S
C511        C520   1.359       .  A
C511        C512   1.381   1_554  A
C512        C513   1.402       .  A
C512        O518   1.315       .  A
C513        C514   1.401       .  A
C513        H522   1.083       .  S
C514        C517   1.363       .  A
O515        C516   1.328       .  A
C516        C517   1.390       .  A
C517        H523   1.083       .  S
O518        C519   1.329   1_556  A
C519        C520   1.388       .  A
C520        H524   1.083       .  S
C525        C530   1.380       .  A
C525        C526   1.403       .  A
C525        O531   1.319       .  A
C526        C527   1.403       .  A
C526        H537   1.082       .  S
C527        C536   1.361       .  A
C527        C528   1.380       .  A
C528        C529   1.406       .  A
C528        O534   1.322       .  A
C529        C530   1.406       .  A
C529        H538   1.082       .  S
C530        C533   1.365       .  A
O531        C532   1.331       .  A
C532        C533   1.393       .  A
C533        H539   1.082       .  S
O534        C535   1.332       .  A
C535        C536   1.391       .  A
C536        H540   1.082       .  S
