geometry optimzed in LAMMPS
_audit_creation_date              2020-12-01 
_audit_creation_method            'lammps2cif' 
_symmetry_space_group_name_H-M    'P1' 
_symmetry_Int_Tables_number       1 
_symmetry_cell_setting            triclinic 
loop_ 
_symmetry_equiv_pos_as_xyz 
  x,y,z 
_cell_length_a                    62.66014386 
_cell_length_b                    62.62520565179706 
_cell_length_c                    44.35282257966333 
_cell_angle_alpha                 89.79952961960464 
_cell_angle_beta                  90.2139579882786 
_cell_angle_gamma                 90.09529094252667 
loop_ 
_atom_site_label 
_atom_site_type_symbol 
_atom_site_fract_x 
_atom_site_fract_y 
_atom_site_fract_z 
_atom_site_charge 
O1          O  0.57056833  0.35836460  0.99715298    -0.55600
C2          C  0.51569972  0.34077107  0.92215531     0.77000
O3          O  0.50415149  0.34473015  0.00241720    -0.56800
C4          C  0.57123050  0.33829205  0.99991785     0.77000
C5          C  0.54446056  0.40347035  0.95876521     0.79400
Cd6        Cd  0.53459607  0.35991831  0.97505478     1.37500
O7          O  0.53464399  0.33642039  0.93008114    -0.55600
O8          O  0.55625288  0.38808707  0.95091000    -0.54400
C9          C  0.50663022  0.35516357  0.02649331     0.79300
O10         O  0.52754633  0.39852674  0.97267296    -0.56800
O11         O  0.50625938  0.35467968  0.93779421    -0.55300
O12         O  0.55538692  0.32815581  0.98947816    -0.55200
O13         O  0.52182058  0.36847174  0.02655890    -0.54400
O14         O  0.58038151  0.62288982  0.99064733    -0.55600
C15         C  0.54110682  0.61725865  0.92299804     0.77000
O16         O  0.61471799  0.61071034  0.90691732    -0.56800
C17         C  0.60010933  0.62363737  0.99665845     0.77000
C18         C  0.58155466  0.55962040  0.94649038     0.79400
Cd19       Cd  0.58369925  0.60558993  0.94188144     1.37500
O20         O  0.55014496  0.62628819  0.94512602    -0.55600
O21         O  0.57477636  0.57164892  0.96720909    -0.54400
C22         C  0.60768259  0.62822486  0.89654326     0.79300
O23         O  0.59022856  0.56888230  0.92426913    -0.56800
O24         O  0.55138271  0.60219721  0.91086820    -0.55300
O25         O  0.61242908  0.61481789  0.97791232    -0.55200
O26         O  0.59015163  0.63450823  0.90719041    -0.54400
O27         O  0.99748382  0.34099976  0.50367042    -0.55600
C28         C  0.03334712  0.34930446  0.42960235     0.77000
O29         O  0.97151466  0.35863537  0.40598857    -0.56800
C30         C  0.97779390  0.34000056  0.51001481     0.77000
C31         C  0.98894085  0.40288185  0.46772909     0.79400
Cd32       Cd  0.99183707  0.35831657  0.45411734     1.37500
O33         O  0.02447430  0.36725620  0.42645902    -0.55600
O34         O  0.97793676  0.39477364  0.44664932    -0.54400
C35         C  0.96532117  0.33944952  0.40820501     0.79300
O36         O  0.00072456  0.39023566  0.48255477    -0.56800
O37         O  0.02349534  0.33583346  0.44569224    -0.55300
O38         O  0.96505091  0.34794078  0.49083333    -0.55200
O39         O  0.97098671  0.32954796  0.43175960    -0.54400
O40         O  0.99083071  0.60572224  0.54140724    -0.55600
C41         C  0.04406858  0.61852561  0.45363624     0.77000
O42         O  0.04316848  0.59787453  0.55158465    -0.56800
C43         C  0.98175898  0.62184864  0.52998726     0.77000
C44         C  0.01249114  0.55946873  0.49790879     0.79400
Cd45       Cd  0.02094662  0.60403171  0.50660099     1.37500
O46         O  0.02415784  0.62162138  0.45613538    -0.55600
O47         O  0.00064213  0.57370461  0.48640910    -0.54400
C48         C  0.04844807  0.61723407  0.55489521     0.79300
O49         O  0.02873114  0.56593151  0.51222002    -0.56800
O50         O  0.05268277  0.60804044  0.47477738    -0.55300
O51         O  0.99032411  0.62944621  0.50640745    -0.55200
O52         O  0.04069383  0.63031600  0.53603815    -0.54400
O53         O  0.62811708  0.23282471  0.25377170    -0.55600
C54         C  0.62749551  0.19920842  0.17707196     0.77000
O55         O  0.63789340  0.26508040  0.18291866    -0.56800
C56         C  0.63169641  0.25229043  0.25976634     0.77000
C57         C  0.69440115  0.22396121  0.22183235     0.79400
Cd58       Cd  0.65050518  0.23275729  0.20774776     1.37500
O59         O  0.61928987  0.21717225  0.18262329    -0.55600
O60         O  0.67961419  0.21283032  0.23340537    -0.54400
C61         C  0.64819066  0.26245056  0.15876515     0.79300
O62         O  0.68861329  0.23912746  0.20483668    -0.56800
O63         O  0.64561433  0.19579318  0.18878823    -0.55300
O64         O  0.64472435  0.26182140  0.24273891    -0.55200
O65         O  0.66042562  0.24641205  0.15781920    -0.54400
O66         O  0.91664722  0.19399547  0.19687316    -0.55600
C67         C  0.90545603  0.23646241  0.26365304     0.77000
O68         O  0.86439244  0.20217037  0.21847175    -0.56800
C69         C  0.91598932  0.17395720  0.19315893     0.77000
C70         C  0.92038803  0.17240438  0.29375830     0.79400
Cd71       Cd  0.89747499  0.19345326  0.24552192     1.37500
O72         O  0.91596176  0.22805374  0.24237356    -0.55600
O73         O  0.92548690  0.19048553  0.28337964    -0.54400
C74         C  0.85191351  0.19431993  0.23796361     0.79300
O75         O  0.90393195  0.16386217  0.28222963    -0.56800
O76         O  0.89041600  0.22546482  0.27466509    -0.55300
O77         O  0.90635519  0.16337662  0.21327204    -0.55200
O78         O  0.86063061  0.18504599  0.26024474    -0.54400
O79         O  0.52133558  0.15166600  0.97364333    -0.55600
C80         C  0.55088452  0.13761192  0.89508728     0.77000
O81         O  0.56884343  0.12780227  0.97689596    -0.56800
C82         C  0.50199325  0.14592172  0.97491940     0.77000
C83         C  0.52372720  0.07444744  0.94495485     0.79400
Cd84       Cd  0.53508836  0.11900852  0.95083686     1.37500
O85         O  0.56212995  0.12535770  0.91131433    -0.55600
O86         O  0.51054517  0.08934688  0.94022043    -0.54400
C87         C  0.56224428  0.12344082  0.00313999     0.79300
O88         O  0.54272113  0.08012135  0.95044591    -0.56800
O89         O  0.53184472  0.14021553  0.90365386    -0.55300
O90         O  0.49758113  0.12812861  0.96289941    -0.55200
O91         O  0.54364936  0.11566896  0.00472762    -0.54400
O92         O  0.47984429  0.85296501  0.99828499    -0.55600
C93         C  0.52205668  0.86648615  0.93625190     0.77000
O94         O  0.47569066  0.84876432  0.91005128    -0.56800
C95         C  0.46054377  0.85530521  0.00574618     0.77000
C96         C  0.48033114  0.91976994  0.95607813     0.79400
Cd97       Cd  0.47812288  0.87407566  0.95130167     1.37500
O98         O  0.51234983  0.85467877  0.95501061    -0.55600
O99         O  0.48753860  0.90760643  0.97653924    -0.54400
C100        C  0.45799626  0.85479668  0.89938900     0.79300
O101        O  0.47042876  0.91071625  0.93473592    -0.56800
O102        O  0.51167118  0.88224325  0.92607382    -0.55300
O103        O  0.44922398  0.86630836  0.98783379    -0.55200
O104        O  0.44876021  0.86964906  0.91355648    -0.54400
O105        O  0.93605161  0.75045697  0.73432083    -0.55600
C106        C  0.91681700  0.70652028  0.79458519     0.77000
O107        O  0.86369864  0.72784203  0.73630249    -0.56800
C108        C  0.92725967  0.76577256  0.72033306     0.77000
C109        C  0.91099704  0.70478329  0.68674618     0.79400
Cd110      Cd  0.90303539  0.72953807  0.74069028     1.37500
O111        O  0.91881216  0.72657078  0.79242614    -0.55600
O112        O  0.89230929  0.70599915  0.69738898    -0.54400
C113        C  0.86024141  0.74592326  0.74803711     0.79300
O114        O  0.92532353  0.71446748  0.70139782    -0.56800
O115        O  0.90758456  0.69754529  0.77264859    -0.55300
O116        O  0.90719011  0.76487363  0.71757237    -0.55200
O117        O  0.87649999  0.75570432  0.75790668    -0.54400
O118        O  0.64900742  0.75313209  0.75549845    -0.55600
C119        C  0.64438079  0.80491440  0.70282854     0.77000
O120        O  0.65395184  0.81849005  0.79663968    -0.56800
C121        C  0.66202609  0.74546778  0.77457825     0.77000
C122        C  0.70834261  0.79472060  0.75409186     0.79400
Cd123      Cd  0.66270233  0.79013771  0.75910296     1.37500
O124        O  0.64414049  0.78542432  0.71046344    -0.55600
O125        O  0.69854461  0.80045607  0.77764191    -0.54400
C126        C  0.63743203  0.80922716  0.80665370     0.79300
O127        O  0.69681281  0.78847876  0.73235241    -0.56800
O128        O  0.65302134  0.81759381  0.72141003    -0.55300
O129        O  0.67556543  0.75835258  0.78534148    -0.55200
O130        O  0.63294711  0.79152183  0.79464241    -0.54400
O131        O  0.05899204  0.10975191  0.51732518    -0.55600
C132        C  0.02509170  0.10447697  0.43679611     0.77000
O133        O  0.09342390  0.09461850  0.43285512    -0.56800
C134        C  0.07791868  0.10619714  0.52620893     0.77000
C135        C  0.05791241  0.04693917  0.47352884     0.79400
Cd136      Cd  0.06315477  0.09197626  0.46849173     1.37500
O137        O  0.02854426  0.11072619  0.46353659    -0.55600
O138        O  0.04848064  0.05973422  0.49100929    -0.54400
C139        C  0.09239608  0.11481499  0.43125537     0.79300
O140        O  0.07055332  0.05509707  0.45447000    -0.56800
O141        O  0.03858684  0.09165534  0.42604888    -0.55300
O142        O  0.08945691  0.09509665  0.50892706    -0.55200
O143        O  0.07848044  0.12375344  0.44739972    -0.54400
O144        O  0.99766865  0.82366421  0.48695538    -0.55600
C145        C  0.06265496  0.82222525  0.52352488     0.77000
O146        O  0.01279454  0.88259516  0.50017668    -0.56800
C147        C  0.00380178  0.82524212  0.45996930     0.77000
C148        C  0.00309514  0.84580671  0.56538453     0.79400
Cd149      Cd  0.02519062  0.84611342  0.50879840     1.37500
O150        O  0.04502885  0.81318644  0.51769873    -0.55600
O151        O  0.99359909  0.84968547  0.54080313    -0.54400
C152        C  0.03101871  0.89013868  0.49425912     0.79300
O153        O  0.02305675  0.84327689  0.56384453    -0.56800
O154        O  0.06324201  0.84227809  0.52002373    -0.55300
O155        O  0.02062634  0.83598448  0.45544436    -0.55200
O156        O  0.04634295  0.87705630  0.49446153    -0.54400
O157        O  0.13709326  0.72683773  0.78276202    -0.55600
C158        C  0.13655584  0.68864691  0.70985607     0.77000
O159        O  0.16058328  0.73843751  0.68131568    -0.56800
C160        C  0.14046302  0.74643908  0.78817837     0.77000
C161        C  0.20020606  0.71880602  0.74384981     0.79400
Cd162      Cd  0.15594753  0.72656892  0.73374590     1.37500
O163        O  0.12639839  0.70044552  0.72798747    -0.55600
O164        O  0.18606446  0.70649927  0.75452457    -0.54400
C165        C  0.14574161  0.75202322  0.68154672     0.79300
O166        O  0.19364823  0.73556535  0.73079928    -0.56800
O167        O  0.15584596  0.69349080  0.70554356    -0.55300
O168        O  0.15145586  0.75642325  0.76881650    -0.55200
O169        O  0.13631123  0.75452498  0.70642955    -0.54400
O170        O  0.39506728  0.72947175  0.77894300    -0.55600
C171        C  0.41804812  0.68470775  0.68803381     0.77000
O172        O  0.41000648  0.67495910  0.78665367    -0.56800
C173        C  0.40569427  0.74373327  0.76545884     0.77000
C174        C  0.35757322  0.69445178  0.73996661     0.79400
Cd175      Cd  0.40281516  0.70033356  0.74479137     1.37500
O176        O  0.41797130  0.70446297  0.69400524    -0.55600
O177        O  0.36844915  0.68503028  0.76008201    -0.54400
C178        C  0.42951196  0.67988438  0.78956251     0.79300
O179        O  0.36783180  0.70589902  0.72145737    -0.56800
O180        O  0.41134566  0.67237636  0.70858780    -0.55300
O181        O  0.41452969  0.73816467  0.74108748    -0.55200
O182        O  0.43651991  0.69369823  0.77121035    -0.54400
O183        O  0.15352559  0.25686553  0.21030812    -0.55600
C184        C  0.15657353  0.22156330  0.29221085     0.77000
O185        O  0.20629526  0.27124913  0.26851551    -0.56800
C186        C  0.15590034  0.27648043  0.20379284     0.77000
C187        C  0.14497993  0.28952811  0.29792454     0.79400
Cd188      Cd  0.16875647  0.26027436  0.26173383     1.37500
O189        O  0.14914859  0.22599444  0.26627757    -0.55600
O190        O  0.13649279  0.27588541  0.28068649    -0.54400
C191        C  0.21397472  0.25542504  0.25448908     0.79300
O192        O  0.16522796  0.28952709  0.29928128    -0.56800
O193        O  0.16957699  0.23489290  0.30333898    -0.55300
O194        O  0.16497595  0.28784821  0.22352167    -0.55200
O195        O  0.20072339  0.24201693  0.24421009    -0.54400
O196        O  0.41890944  0.20927500  0.23387296    -0.55600
C197        C  0.43426683  0.27919559  0.18476984     0.77000
O198        O  0.41719565  0.23516356  0.14185100    -0.56800
C199        C  0.43525831  0.21637710  0.24728646     0.77000
C200        C  0.37098777  0.24096979  0.21167923     0.79400
Cd201      Cd  0.41567593  0.23809475  0.19704664     1.37500
O202        O  0.44553962  0.26297703  0.19080859    -0.55600
O203        O  0.38513923  0.24979592  0.22786316    -0.54400
C204        C  0.42406337  0.21624363  0.14086380     0.79300
O205        O  0.37762090  0.23109402  0.18873358    -0.56800
O206        O  0.41427635  0.27679259  0.18714916    -0.55300
O207        O  0.44261891  0.23389340  0.23748917    -0.55200
O208        O  0.42635025  0.20697222  0.16604004    -0.54400
O209        O  0.91320667  0.76716975  0.27045518    -0.55600
C210        C  0.92302871  0.69860464  0.21265767     0.77000
O211        O  0.86799397  0.74627693  0.23983861    -0.56800
C212        C  0.92330963  0.75648724  0.29009383     0.77000
C213        C  0.91916846  0.76109697  0.18622746     0.79400
Cd214      Cd  0.90570092  0.73682503  0.23748172     1.37500
O215        O  0.90562685  0.70661097  0.20359117    -0.55600
O216        O  0.93175844  0.75445809  0.20647622    -0.54400
C217        C  0.86206466  0.72905860  0.25232529     0.79300
O218        O  0.89945072  0.75795780  0.19074058    -0.56800
O219        O  0.93164313  0.70735356  0.23537084    -0.55300
O220        O  0.92454122  0.73657011  0.28567231    -0.55200
O221        O  0.87656502  0.71567035  0.25838448    -0.54400
O222        O  0.64762179  0.68107752  0.21280601    -0.55600
C223        C  0.65140568  0.75180996  0.26250568     0.77000
O224        O  0.65530716  0.67858484  0.28388023    -0.56800
C225        C  0.64875276  0.69228964  0.18912605     0.77000
C226        C  0.70555717  0.70336333  0.25564746     0.79400
Cd227      Cd  0.66064939  0.70797358  0.24754151     1.37500
O228        O  0.63881274  0.74073383  0.24659510    -0.55600
O229        O  0.69734922  0.70435316  0.22953035    -0.54400
C230        C  0.63600036  0.68312740  0.28904267     0.79300
O231        O  0.69282127  0.70334596  0.27769192    -0.56800
O232        O  0.66889960  0.74306988  0.26939441    -0.55300
O233        O  0.65603775  0.71104930  0.19218459    -0.55200
O234        O  0.62847721  0.69919046  0.27536757    -0.54400
O235        O  0.03740773  0.10836405  0.95803607    -0.55600
C236        C  0.98390212  0.10588447  0.01224183     0.77000
O237        O  0.97559071  0.09345229  0.91640432    -0.56800
C238        C  0.04280786  0.10135679  0.93233147     0.77000
C239        C  0.00832992  0.04547906  0.96324178     0.79400
Cd240      Cd  0.00251377  0.09047340  0.95735793     1.37500
O241        O  0.00357148  0.10835853  0.00668542    -0.55600
O242        O  0.02112955  0.05872015  0.97495693    -0.54400
C243        C  0.97990891  0.11287369  0.91086612     0.79300
O244        O  0.99205014  0.05307433  0.95001332    -0.56800
O245        O  0.97317683  0.09581230  0.99271019    -0.55300
O246        O  0.02997053  0.08857564  0.91968560    -0.55200
O247        O  0.99383244  0.12152327  0.92750636    -0.54400
O248        O  0.04456586  0.82234115  0.95770976    -0.55600
C249        C  0.00205986  0.82583411  0.02192614     0.77000
O250        O  0.04769990  0.84825486  0.05798967    -0.56800
C251        C  0.06468113  0.82395374  0.95540465     0.77000
C252        C  0.03693215  0.88919050  0.98674936     0.79400
Cd253      Cd  0.04176150  0.84511058  0.00311239     1.37500
O254        O  0.01811255  0.81457281  0.01523376    -0.55600
O255        O  0.04653477  0.88320987  0.01038349    -0.54400
C256        C  0.06590309  0.83961139  0.05805386     0.79300
O257        O  0.03033032  0.87462050  0.96934179    -0.56800
O258        O  0.00385559  0.84565604  0.01721602    -0.55300
O259        O  0.07381511  0.83580298  0.97455107    -0.55200
O260        O  0.07308979  0.83431647  0.03258602    -0.54400
O261        O  0.03126731  0.32838965  0.96110206    -0.55600
C262        C  0.08258068  0.33870895  0.02097691     0.77000
O263        O  0.08340413  0.35738062  0.91973209    -0.56800
C264        C  0.02077024  0.34078124  0.94396437     0.77000
C265        C  0.05473607  0.39762315  0.97608779     0.79400
Cd266      Cd  0.06196543  0.35320184  0.96630321     1.37500
O267        O  0.06323057  0.33420676  0.01545322    -0.55600
O268        O  0.06958457  0.39122948  0.95901874    -0.54400
C269        C  0.08767302  0.33771090  0.91753352     0.79300
O270        O  0.04448792  0.38334250  0.99024896    -0.56800
O271        O  0.09184978  0.35035452  0.00167758    -0.55300
O272        O  0.02908327  0.35872459  0.93848909    -0.55200
O273        O  0.08018909  0.32561264  0.93776733    -0.54400
O274        O  0.98370058  0.61148840  0.97759001    -0.55600
C275        C  0.05915738  0.61447905  0.01958559     0.77000
O276        O  0.00986555  0.62681122  0.03822647    -0.56800
C277        C  0.99219386  0.61985974  0.95457896     0.77000
C278        C  0.02050356  0.55423603  0.99164145     0.79400
Cd279      Cd  0.01735770  0.59962139  0.00150268     1.37500
O280        O  0.04959147  0.62269159  0.99716614    -0.55600
O281        O  0.02695740  0.56748472  0.97202983    -0.54400
C282        C  0.99663943  0.61621373  0.05365837     0.79300
O283        O  0.01199996  0.56207836  0.01490156    -0.56800
O284        O  0.05044018  0.59814423  0.03099078    -0.55300
O285        O  0.01224745  0.61773923  0.95249380    -0.55200
O286        O  0.99268410  0.59739720  0.04476509    -0.54400
O287        O  0.12449450  0.71024560  0.28226622    -0.55600
C288        C  0.12853456  0.75295787  0.21783418     0.77000
O289        O  0.18516413  0.71022438  0.22959391    -0.56800
C290        C  0.12704446  0.69047358  0.28676632     0.77000
C291        C  0.13629366  0.69144454  0.17905365     0.79400
Cd292      Cd  0.14622641  0.71276604  0.23584213     1.37500
O293        O  0.11716611  0.73862301  0.23009104    -0.55600
O294        O  0.12657942  0.70762435  0.18874365    -0.54400
C295        C  0.19001150  0.72338762  0.25013121     0.79300
O296        O  0.15117135  0.68449593  0.19585457    -0.56800
O297        O  0.14836462  0.74927538  0.21634383    -0.55300
O298        O  0.13870308  0.68098376  0.26786044    -0.55200
O299        O  0.17455181  0.73101754  0.26481353    -0.54400
O300        O  0.40408088  0.78031592  0.21104227    -0.55600
C301        C  0.40904536  0.74653034  0.27372239     0.77000
O302        O  0.38773583  0.80379388  0.30898527    -0.56800
C303        C  0.40032731  0.79899388  0.20135513     0.77000
C304        C  0.34145427  0.77663202  0.26361809     0.79400
Cd305      Cd  0.38669031  0.78520999  0.25992356     1.37500
O306        O  0.41378795  0.76417381  0.28572963    -0.55600
O307        O  0.34933409  0.78730757  0.24208745    -0.54400
C308        C  0.40329660  0.81576637  0.30222062     0.79300
O309        O  0.35428505  0.77118644  0.28424534    -0.56800
O310        O  0.39428683  0.74693283  0.25419259    -0.55300
O311        O  0.38917625  0.81081836  0.21823953    -0.55200
O312        O  0.40956131  0.81486176  0.27524024    -0.54400
O313        O  0.53957409  0.15676441  0.48274753    -0.55600
C314        C  0.50049314  0.14073084  0.42596135     0.77000
O315        O  0.54274977  0.09169340  0.46228535    -0.56800
C316        C  0.55729022  0.14898106  0.49084096     0.77000
C317        C  0.49714181  0.12238888  0.53392357     0.79400
Cd318      Cd  0.52072549  0.12202974  0.47810284     1.37500
O319        O  0.51368042  0.12556184  0.42336972    -0.55600
O320        O  0.48801349  0.12481137  0.50866544    -0.54400
C321        C  0.52850167  0.07753807  0.46559711     0.79300
O322        O  0.51696810  0.11880896  0.53308550    -0.56800
O323        O  0.49663560  0.14681211  0.45251034    -0.55300
O324        O  0.55824010  0.12882949  0.49170917    -0.55200
O325        O  0.51030297  0.08416945  0.47357824    -0.54400
O326        O  0.52929864  0.85223041  0.45014444    -0.55600
C327        C  0.58152246  0.85827510  0.50605630     0.77000
O328        O  0.58802086  0.87246212  0.40829037    -0.56800
C329        C  0.51830267  0.86579923  0.43571623     0.77000
C330        C  0.56184368  0.92010584  0.45520733     0.79400
Cd331      Cd  0.56239315  0.87413998  0.45097862     1.37500
O332        O  0.56154191  0.85822041  0.50168495    -0.55600
O333        O  0.55842564  0.90829083  0.47793581    -0.54400
C334        C  0.58491721  0.85286502  0.40284325     0.79300
O335        O  0.56698607  0.91058138  0.43116046    -0.56800
O336        O  0.59268822  0.86620573  0.48506853    -0.55300
O337        O  0.52735991  0.88337390  0.43016522    -0.55200
O338        O  0.57151593  0.84349781  0.41949935    -0.54400
O339        O  0.14763863  0.19930275  0.70528164    -0.55600
C340        C  0.15389756  0.24269802  0.77083514     0.77000
O341        O  0.16344327  0.16862355  0.78874821    -0.56800
C342        C  0.14556617  0.17918596  0.70448390     0.77000
C343        C  0.21136753  0.20267068  0.74442283     0.79400
Cd344      Cd  0.16611374  0.20000061  0.75456238     1.37500
O345        O  0.17190289  0.23480373  0.77738250    -0.55600
O346        O  0.19794737  0.20832848  0.72458076    -0.54400
C347        C  0.14905816  0.17682540  0.80498495     0.79300
O348        O  0.20375072  0.19482026  0.76842500    -0.56800
O349        O  0.14173511  0.23116946  0.75476650    -0.55300
O350        O  0.15328881  0.16898806  0.72656862    -0.55200
O351        O  0.14410653  0.19589470  0.79890824    -0.54400
O352        O  0.43316176  0.24503464  0.75487573    -0.55600
C353        C  0.43272525  0.20591956  0.69001126     0.77000
O354        O  0.37349318  0.25069953  0.70011485    -0.56800
C355        C  0.43463294  0.26514730  0.75661260     0.77000
C356        C  0.41921987  0.26923433  0.65286890     0.79400
Cd357      Cd  0.41210232  0.24490510  0.70733930     1.37500
O358        O  0.44320540  0.22252323  0.69686201    -0.55600
O359        O  0.41754121  0.24911445  0.65277594    -0.54400
C360        C  0.36753007  0.23776246  0.72034158     0.79300
O361        O  0.41650737  0.27828443  0.67801244    -0.56800
O362        O  0.41268621  0.20707076  0.69286866    -0.55300
O363        O  0.42490663  0.27559927  0.73641909    -0.55200
O364        O  0.38218112  0.22911250  0.73573855    -0.54400
O365        O  0.51859684  0.62624721  0.43814117    -0.55600
C366        C  0.47157026  0.62213658  0.49322443     0.77000
O367        O  0.48748212  0.62137961  0.38984945    -0.56800
C368        C  0.53001478  0.61359164  0.42288750     0.77000
C369        C  0.48437561  0.55761106  0.44055261     0.79400
Cd370      Cd  0.48709571  0.60319773  0.43831683     1.37500
O371        O  0.49118477  0.62229508  0.48654957    -0.55600
O372        O  0.49479360  0.56819986  0.45990161    -0.54400
C373        C  0.46769865  0.62454493  0.38774904     0.79300
O374        O  0.47430113  0.56830974  0.42091907    -0.56800
O375        O  0.45935109  0.61279056  0.47474558    -0.55300
O376        O  0.52221815  0.59527580  0.41784302    -0.55200
O377        O  0.45638922  0.61676689  0.40867422    -0.54400
O378        O  0.56477022  0.34279049  0.44217178    -0.55600
C379        C  0.50114201  0.33893072  0.49041595     0.77000
O380        O  0.54226736  0.36714537  0.51752966    -0.56800
C381        C  0.55561963  0.33777446  0.41781234     0.77000
C382        C  0.52305494  0.40407553  0.44124126     0.79400
Cd383      Cd  0.53539282  0.36296907  0.46363454     1.37500
O384        O  0.51780223  0.32987873  0.48073387    -0.55600
O385        O  0.51179714  0.38769843  0.43633352    -0.54400
C386        C  0.56236549  0.36845406  0.51568614     0.79300
O387        O  0.54066802  0.40102924  0.45453900    -0.56800
O388        O  0.50002417  0.35888176  0.48634477    -0.55300
O389        O  0.53683496  0.34476857  0.41424693    -0.55200
O390        O  0.57001037  0.36869870  0.48932508    -0.54400
O391        O  0.92519383  0.25960902  0.71347350    -0.55600
C392        C  0.91125484  0.21815414  0.77352026     0.77000
O393        O  0.90786597  0.26755484  0.80578073    -0.56800
C394        C  0.91764039  0.27582135  0.70000179     0.77000
C395        C  0.85359445  0.25751202  0.74117151     0.79400
Cd396      Cd  0.89815840  0.25970641  0.75369297     1.37500
O397        O  0.89353028  0.22623380  0.78075915    -0.55600
O398        O  0.86093668  0.26789849  0.76331667    -0.54400
C399        C  0.91277619  0.28686377  0.80164524     0.79300
O400        O  0.86702868  0.24805083  0.72474650    -0.56800
O401        O  0.92240120  0.22873404  0.75490596    -0.55300
O402        O  0.90114455  0.28405766  0.71141978    -0.55200
O403        O  0.90990501  0.29413358  0.77536517    -0.54400
O404        O  0.62085891  0.27080640  0.67908030    -0.55600
C405        C  0.62558961  0.22501707  0.73564938     0.77000
O406        O  0.64549521  0.24619598  0.63493870    -0.56800
C407        C  0.63198428  0.28683092  0.67153305     0.77000
C408        C  0.69551448  0.24897494  0.70416773     0.79400
Cd409      Cd  0.65075422  0.24717791  0.69004392     1.37500
O410        O  0.62754147  0.21879265  0.70880474    -0.55600
O411        O  0.68737365  0.23400054  0.68896608    -0.54400
C412        C  0.64686770  0.22613057  0.63283038     0.79300
O413        O  0.68266892  0.26280287  0.71414826    -0.56800
O414        O  0.63535300  0.24215368  0.74213623    -0.55300
O415        O  0.65190663  0.28521295  0.67568140    -0.55200
O416        O  0.65170399  0.21616959  0.65675649    -0.54400
C417        C  0.75408783  0.23420066  0.70722902     0.14900
C418        C  0.76327193  0.25315805  0.71794649     0.01800
C419        C  0.75020078  0.27077855  0.72407931     0.16800
C420        C  0.72814543  0.26940446  0.71991477     0.26200
C421        C  0.71879870  0.25034480  0.70938559    -0.40100
C422        C  0.73206065  0.23279623  0.70287332     0.33300
C423        C  0.78642573  0.25437374  0.72360392     0.01900
F424        F  0.75888707  0.28943882  0.73373494    -0.12400
F425        F  0.72375886  0.21413484  0.69261192    -0.13000
C426        C  0.80100647  0.25101876  0.70012611     0.16800
C427        C  0.82292883  0.25196337  0.70577940     0.26200
C428        C  0.83053286  0.25644976  0.73498680    -0.40100
C429        C  0.81586303  0.25991590  0.75838039     0.33200
C430        C  0.79400257  0.25875281  0.75274485     0.14900
F431        F  0.79399159  0.24719562  0.67164146    -0.12400
F432        F  0.82264625  0.26391751  0.78692448    -0.12900
F433        F  0.83666287  0.24899172  0.68255471    -0.15200
F434        F  0.78018203  0.26145501  0.77592377    -0.13800
F435        F  0.76643277  0.21686801  0.70161008    -0.13800
F436        F  0.71606221  0.28689447  0.72562433    -0.15200
C437        C  0.57760694  0.36139930  0.59705305     0.14900
C438        C  0.59796521  0.35233757  0.59405682     0.01800
C439        C  0.60847983  0.35382297  0.56617554     0.16800
C440        C  0.59764410  0.36162490  0.54079160     0.26200
C441        C  0.57603559  0.36763934  0.54296776    -0.40100
C442        C  0.56667470  0.36893376  0.57170973     0.33300
C443        C  0.60600247  0.33757297  0.61761821     0.01900
F444        F  0.62834602  0.34557180  0.56272153    -0.12400
F445        F  0.54629764  0.37585351  0.57503265    -0.13000
C446        C  0.59342527  0.31985851  0.62566400     0.16800
C447        C  0.60138411  0.30418708  0.64497247     0.26200
C448        C  0.62237287  0.30557675  0.65624584    -0.40100
C449        C  0.63475208  0.32373285  0.64905476     0.33200
C450        C  0.62658312  0.33962887  0.62992294     0.14900
F451        F  0.57384318  0.31690494  0.61308380    -0.12400
F452        F  0.65502929  0.32576265  0.65956843    -0.12900
F453        F  0.58892080  0.28691329  0.65082993    -0.15200
F454        F  0.63896595  0.35669576  0.62272268    -0.13800
F455        F  0.56752139  0.36103625  0.62409739    -0.13800
F456        F  0.60764265  0.36118856  0.51368951    -0.15200
C457        C  0.52245139  0.46390374  0.43332133     0.14900
C458        C  0.50046182  0.46797002  0.43198318     0.01800
C459        C  0.48606026  0.45092111  0.42935858     0.16800
C460        C  0.49353376  0.42989592  0.43017613     0.26200
C461        C  0.51552190  0.42577257  0.43384705    -0.40100
C462        C  0.52995045  0.44299617  0.43428763     0.33300
C463        C  0.49286898  0.49001431  0.43563643     0.01900
F464        F  0.46473270  0.45461340  0.42792303    -0.12400
F465        F  0.55129299  0.43966434  0.43678810    -0.13000
C466        C  0.48294336  0.50084290  0.41172440     0.16800
C467        C  0.47893663  0.52273974  0.41391209     0.26200
C468        C  0.48495298  0.53404151  0.44007771    -0.40100
C469        C  0.49355058  0.52271458  0.46474125     0.33200
C470        C  0.49739592  0.50087757  0.46251851     0.14900
F471        F  0.47835764  0.49049836  0.38563270    -0.12400
F472        F  0.49895196  0.53284660  0.49069809    -0.12900
F473        F  0.47042799  0.53303275  0.38971791    -0.15200
F474        F  0.50631978  0.49039914  0.48627303    -0.13800
F475        F  0.53663276  0.48029557  0.43483149    -0.13800
F476        F  0.47912229  0.41368453  0.42950900    -0.15200
C477        C  0.47513380  0.29841839  0.54176814     0.14900
C478        C  0.45579299  0.30857491  0.54841747     0.01800
C479        C  0.45015814  0.32731345  0.53298033     0.16800
C480        C  0.46435050  0.33652726  0.51238269     0.26200
C481        C  0.48448515  0.32719550  0.50728475    -0.40100
C482        C  0.48938152  0.30760417  0.52134695     0.33300
C483        C  0.44289621  0.30066665  0.57382930     0.01900
F484        F  0.43123639  0.33701582  0.53861617    -0.12400
F485        F  0.50855239  0.29803858  0.51701864    -0.13000
C486        C  0.44479749  0.31052269  0.60207749     0.16800
C487        C  0.43593944  0.30096175  0.62768063     0.26200
C488        C  0.42517819  0.28125598  0.62536763    -0.40100
C489        C  0.42223643  0.27211184  0.59666207     0.33200
C490        C  0.43106749  0.28176336  0.57109521     0.14900
F491        F  0.45652021  0.32865622  0.60514513    -0.12400
F492        F  0.41137000  0.25348328  0.59344458    -0.12900
F493        F  0.43930551  0.31020137  0.65494665    -0.15200
F494        F  0.42884027  0.27223331  0.54381896    -0.13800
F495        F  0.48080389  0.28026307  0.55656863    -0.13800
F496        F  0.45864119  0.35488172  0.49811841    -0.15200
C497        C  0.30714627  0.24107704  0.71820803     0.14900
C498        C  0.30128290  0.22113191  0.73029190     0.01800
C499        C  0.31733047  0.20695908  0.73984721     0.16800
C500        C  0.33884645  0.21264335  0.73748824     0.26200
C501        C  0.34475279  0.23247774  0.72496068    -0.40100
C502        C  0.32867106  0.24663487  0.71534637     0.33300
C503        C  0.27845526  0.21528592  0.73344378     0.01900
F504        F  0.31217120  0.18734007  0.75076832    -0.12400
F505        F  0.33375107  0.26601033  0.70353753    -0.13000
C506        C  0.26464190  0.21596037  0.70840709     0.16800
C507        C  0.24291969  0.21138440  0.71176230     0.26200
C508        C  0.23461795  0.20581580  0.74022307    -0.40100
C509        C  0.24863741  0.20455616  0.76507594     0.33200
C510        C  0.27027685  0.20938424  0.76172841     0.14900
F511        F  0.27220786  0.22100280  0.68062224    -0.12400
F512        F  0.24133792  0.19943048  0.79296563    -0.12900
F513        F  0.23004652  0.21250302  0.68710963    -0.15200
F514        F  0.28312408  0.20905661  0.78644820    -0.13800
F515        F  0.29199665  0.25535392  0.70960415    -0.13800
F516        F  0.35389174  0.19836961  0.74647154    -0.15200
C517        C  0.61157637  0.16480860  0.52088109     0.14900
C518        C  0.60759792  0.18560629  0.53116315     0.01800
C519        C  0.58830206  0.19560756  0.52313168     0.16800
C520        C  0.57242022  0.18421050  0.50776411     0.26200
C521        C  0.57550247  0.16252353  0.50053036    -0.40100
C522        C  0.59564356  0.15329490  0.50595919     0.33300
C523        C  0.62148144  0.19509145  0.55474594     0.01900
F524        F  0.58401270  0.21576153  0.53253199    -0.12400
F525        F  0.59961033  0.13271213  0.49832461    -0.13000
C526        C  0.62937074  0.21605839  0.55228026     0.16800
C527        C  0.63911697  0.22589719  0.57713052     0.26200
C528        C  0.64125135  0.21480007  0.60469647    -0.40100
C529        C  0.63491334  0.19327692  0.60619777     0.33200
C530        C  0.62487530  0.18366256  0.58168649     0.14900
F531        F  0.62696410  0.22723186  0.52620193    -0.12400
F532        F  0.63673221  0.18193636  0.63223184    -0.12900
F533        F  0.64574380  0.24647822  0.57453203    -0.15200
F534        F  0.61687691  0.16364667  0.58523690    -0.13800
F535        F  0.63044819  0.15511288  0.52719736    -0.13800
F536        F  0.55345987  0.19395852  0.50221143    -0.15200
C537        C  0.45505965  0.13946037  0.58963952     0.14900
C538        C  0.46696940  0.13984607  0.61653437     0.01800
C539        C  0.48734216  0.13058770  0.61713859     0.16800
C540        C  0.49666604  0.12330522  0.59051412     0.26200
C541        C  0.48563380  0.12505825  0.56283122    -0.40100
C542        C  0.46426072  0.13204140  0.56301677     0.33300
C543        C  0.46005865  0.15391926  0.64133411     0.01900
F544        F  0.49884059  0.13014591  0.64314741    -0.12400
F545        F  0.45274105  0.13335119  0.53708519    -0.13000
C546        C  0.44000823  0.15139574  0.65492570     0.16800
C547        C  0.43158755  0.16771912  0.67278270     0.26200
C548        C  0.44315583  0.18680658  0.67722571    -0.40100
C549        C  0.46401073  0.18837927  0.66574121     0.33200
C550        C  0.47230297  0.17215203  0.64786282     0.14900
F551        F  0.42816635  0.13361230  0.64963068    -0.12400
F552        F  0.47580929  0.20638086  0.66956413    -0.12900
F553        F  0.41173959  0.16523596  0.68447952    -0.15200
F554        F  0.49157806  0.17519587  0.63459786    -0.13800
F555        F  0.43528591  0.14828202  0.58844520    -0.13800
F556        F  0.51702676  0.11596404  0.59162891    -0.15200
C557        C  0.52286781  0.01709514  0.46740331     0.14900
C558        C  0.54322042  0.01056928  0.45808150     0.01800
C559        C  0.55829026  0.02602918  0.44962411     0.16800
C560        C  0.55335462  0.04776394  0.45130203     0.26200
C561        C  0.53311519  0.05447546  0.46135807    -0.40100
C562        C  0.51778853  0.03882677  0.46888458     0.33300
C563        C  0.54886250  0.98763791  0.45749648     0.01900
F564        F  0.57805850  0.02004893  0.44053381    -0.12400
F565        F  0.49798941  0.04447127  0.47827462    -0.13000
C566        C  0.55319296  0.97750580  0.43004415     0.16800
C567        C  0.55818570  0.95574454  0.42937445     0.26200
C568        C  0.55890935  0.94364585  0.45626680    -0.40100
C569        C  0.55513315  0.95407767  0.48387580     0.33200
C570        C  0.55008810  0.97584556  0.48441891     0.14900
F571        F  0.55195165  0.98859614  0.40373548    -0.12400
F572        F  0.55618699  0.94324620  0.51040925    -0.12900
F573        F  0.56163866  0.94645050  0.40222306    -0.15200
F574        F  0.54647333  0.98548526  0.51129478    -0.13800
F575        F  0.50789098  0.00237183  0.47507607    -0.13800
F576        F  0.56857403  0.06218689  0.44347814    -0.15200
C577        C  0.41966492  0.68772240  0.28649374     0.14900
C578        C  0.43689419  0.68854137  0.30668952     0.01800
C579        C  0.44611905  0.70829084  0.31397241     0.16800
C580        C  0.43759425  0.72713798  0.30228846     0.26200
C581        C  0.41967891  0.72651596  0.28299407    -0.40100
C582        C  0.41110540  0.70655673  0.27464933     0.33300
C583        C  0.44369770  0.66928748  0.32315226     0.01900
F584        F  0.46260597  0.70940194  0.33388723    -0.12400
F585        F  0.39375934  0.70523682  0.25631905    -0.13000
C586        C  0.46471904  0.66191229  0.32085740     0.16800
C587        C  0.47218665  0.64617940  0.34058058     0.26200
C588        C  0.45871021  0.63777278  0.36316766    -0.40100
C589        C  0.43721205  0.64421516  0.36394444     0.33200
C590        C  0.42980626  0.65989094  0.34410700     0.14900
F591        F  0.47826214  0.67065567  0.30038758    -0.12400
F592        F  0.42364968  0.63641710  0.38510651    -0.12900
F593        F  0.49289445  0.64000824  0.33843300    -0.15200
F594        F  0.40947123  0.66706704  0.34687024    -0.13800
F595        F  0.41068745  0.66869041  0.27911110    -0.13800
F596        F  0.44643852  0.74599336  0.31084742    -0.15200
C597        C  0.46550482  0.87287790  0.39540188     0.14900
C598        C  0.45971367  0.85157568  0.39014365     0.01800
C599        C  0.47167801  0.83507973  0.40344847     0.16800
C600        C  0.48993045  0.83975172  0.42037500     0.26200
C601        C  0.49667852  0.86105348  0.42393109    -0.40100
C602        C  0.48377812  0.87761558  0.41231467     0.33300
C603        C  0.44268983  0.84622814  0.36833653     0.01900
F604        F  0.46655793  0.81434165  0.39816130    -0.12400
F605        F  0.48924670  0.89840169  0.41636219    -0.13000
C606        C  0.44558447  0.85079927  0.33761734     0.16800
C607        C  0.43176027  0.84217247  0.31607547     0.26200
C608        C  0.41477683  0.82876487  0.32494427    -0.40100
C609        C  0.41104169  0.82554929  0.35595916     0.33200
C610        C  0.42495445  0.83417238  0.37742857     0.14900
F611        F  0.46277191  0.86226491  0.32829061    -0.12400
F612        F  0.39485156  0.81283584  0.36556206    -0.12900
F613        F  0.43584897  0.84592766  0.28647155    -0.15200
F614        F  0.42176585  0.82985146  0.40708863    -0.13800
F615        F  0.45388489  0.88904842  0.38320857    -0.13800
F616        F  0.50177762  0.82331653  0.43134282    -0.15200
C617        C  0.28620547  0.76106055  0.23675141     0.14900
C618        C  0.27666897  0.75381899  0.26352231     0.01800
C619        C  0.28816659  0.75504901  0.29071253     0.16800
C620        C  0.30907264  0.76299924  0.29098817     0.26200
C621        C  0.31875894  0.77000693  0.26405189    -0.40100
C622        C  0.30700002  0.76910601  0.23698528     0.33300
C623        C  0.25481625  0.74479627  0.26265025     0.01900
F624        F  0.27938020  0.74794688  0.31683763    -0.12400
F625        F  0.31588248  0.77520547  0.21043428    -0.13000
C626        C  0.25028863  0.72717083  0.24420917     0.16800
C627        C  0.22934556  0.71986666  0.24078485     0.26200
C628        C  0.21243864  0.72995786  0.25596778    -0.40100
C629        C  0.21717771  0.74710217  0.27549644     0.33200
C630        C  0.23818450  0.75444241  0.27874003     0.14900
F631        F  0.26621189  0.71714898  0.22917416    -0.12400
F632        F  0.20145429  0.75733559  0.29065734    -0.12900
F633        F  0.22565641  0.70310751  0.22213728    -0.15200
F634        F  0.24215468  0.77158580  0.29658492    -0.13800
F635        F  0.27535323  0.76022768  0.21022099    -0.13800
F636        F  0.31985794  0.76367415  0.31758265    -0.15200
C637        C  0.10382394  0.67715625  0.10952208     0.14900
C638        C  0.11570047  0.66039724  0.09695875     0.01800
C639        C  0.13535128  0.65485372  0.11033007     0.16800
C640        C  0.14239435  0.66511360  0.13669404     0.26200
C641        C  0.13000130  0.68130075  0.14999104    -0.40100
C642        C  0.11092273  0.68756900  0.13548335     0.33300
C643        C  0.10607762  0.64734270  0.07238598     0.01900
F644        F  0.14757101  0.63926779  0.09808319    -0.12400
F645        F  0.09848444  0.70325108  0.14705087    -0.13000
C646        C  0.09753569  0.65712661  0.04638924     0.16800
C647        C  0.08367926  0.64583723  0.02732612     0.26200
C648        C  0.07820444  0.62447768  0.03384485    -0.40100
C649        C  0.08868663  0.61409279  0.05793837     0.33200
C650        C  0.10235698  0.62543924  0.07708819     0.14900
F651        F  0.10152885  0.67804737  0.04051352    -0.12400
F652        F  0.08455362  0.59328567  0.06439488    -0.12900
F653        F  0.07431109  0.65639572  0.00400367    -0.15200
F654        F  0.11035038  0.61542069  0.10185463    -0.13800
F655        F  0.08458222  0.68269692  0.09768727    -0.13800
F656        F  0.16120616  0.65902615  0.14929700    -0.15200
C657        C  0.95048639  0.32442065  0.84095038     0.14900
C658        C  0.94899873  0.31704452  0.87084119     0.01800
C659        C  0.93318705  0.30211360  0.87847048     0.16800
C660        C  0.92016146  0.29336606  0.85611366     0.26200
C661        C  0.92271804  0.29953798  0.82580831    -0.40100
C662        C  0.93729094  0.31586607  0.81860053     0.33300
C663        C  0.96546025  0.32306193  0.89310634     0.01900
F664        F  0.93106554  0.29529059  0.90739700    -0.12400
F665        F  0.94012065  0.32222669  0.78957904    -0.13000
C666        C  0.96916628  0.34457490  0.90005524     0.16800
C667        C  0.98652857  0.35029823  0.91814465     0.26200
C668        C  0.00045263  0.33453770  0.92956387    -0.40100
C669        C  0.99599048  0.31291122  0.92392050     0.33200
C670        C  0.97871971  0.30724168  0.90564338     0.14900
F671        F  0.95628434  0.36005744  0.88863408    -0.12400
F672        F  0.00917223  0.29731565  0.93426588    -0.12900
F673        F  0.98999940  0.37131113  0.92386695    -0.15200
F674        F  0.97577034  0.28635779  0.89856565    -0.13800
F675        F  0.96587644  0.33862080  0.83293646    -0.13800
F676        F  0.90566110  0.27820858  0.86393250    -0.15200
C677        C  0.12426897  0.30139587  0.87433560     0.14900
C678        C  0.12221168  0.30930022  0.84475678     0.01800
C679        C  0.10982390  0.32764266  0.83947794     0.16800
C680        C  0.09915232  0.33753755  0.86338292     0.26200
C681        C  0.10056286  0.32901297  0.89273116    -0.40100
C682        C  0.11351563  0.31110675  0.89803827     0.33300
C683        C  0.13149791  0.29689667  0.81968925     0.01900
F684        F  0.10773760  0.33567383  0.81115259    -0.12400
F685        F  0.11558587  0.30280355  0.92622803    -0.13000
C686        C  0.11804881  0.28704875  0.79844767     0.16800
C687        C  0.12575146  0.27049355  0.78037220     0.26200
C688        C  0.14703554  0.26350325  0.78343840    -0.40100
C689        C  0.16098462  0.27511269  0.80230792     0.33200
C690        C  0.15325884  0.29165785  0.82020738     0.14900
F691        F  0.09699442  0.29208658  0.79714457    -0.12400
F692        F  0.18183331  0.26955405  0.80514547    -0.12900
F693        F  0.11192568  0.26032651  0.76163357    -0.15200
F694        F  0.16673222  0.30154504  0.83975761    -0.13800
F695        F  0.13590838  0.28355370  0.88009352    -0.13800
F696        F  0.08656072  0.35470079  0.85757927    -0.15200
C697        C  0.02706345  0.49565547  0.01105947     0.14900
C698        C  0.03134342  0.48673025  0.98273719     0.01800
C699        C  0.03097989  0.49989717  0.95701320     0.16800
C700        C  0.02709637  0.52181301  0.95970792     0.26200
C701        C  0.02327772  0.53088437  0.98819458    -0.40100
C702        C  0.02299884  0.51747700  0.01378454     0.33300
C703        C  0.03709753  0.46388694  0.98040054     0.01900
F704        F  0.03437487  0.49149295  0.92926050    -0.12400
F705        F  0.01971037  0.52557575  0.04173979    -0.13000
C706        C  0.02325467  0.44802593  0.99134852     0.16800
C707        C  0.02917764  0.42654190  0.99052031     0.26200
C708        C  0.04905142  0.42047927  0.97847337    -0.40100
C709        C  0.06278947  0.43641068  0.96720643     0.33200
C710        C  0.05689043  0.45790682  0.96830391     0.14900
F711        F  0.00379995  0.45332902  0.00241852    -0.12400
F712        F  0.08204845  0.43127051  0.95535137    -0.12900
F713        F  0.01515797  0.41167531  0.00081838    -0.15200
F714        F  0.07074201  0.47296442  0.95812640    -0.13800
F715        F  0.02766532  0.48335410  0.03632904    -0.13800
F716        F  0.02703623  0.53410465  0.93443475    -0.15200
C717        C  0.07707959  0.82919155  0.14070594     0.14900
C718        C  0.09610640  0.81746598  0.13898944     0.01800
C719        C  0.10677670  0.81604914  0.11127809     0.16800
C720        C  0.09767948  0.82467901  0.08520111     0.26200
C721        C  0.07760205  0.83473734  0.08632151    -0.40100
C722        C  0.06790099  0.83784325  0.11460855     0.33300
C723        C  0.10314370  0.80393452  0.16450767     0.01900
F724        F  0.12517316  0.80474627  0.10894618    -0.12400
F725        F  0.04892903  0.84814049  0.11691385    -0.13000
C726        C  0.08973818  0.78742862  0.17467106     0.16800
C727        C  0.09755064  0.77171387  0.19414979     0.26200
C728        C  0.11903654  0.77209577  0.20355894    -0.40100
C729        C  0.13200000  0.78949969  0.19508024     0.33200
C730        C  0.12408269  0.80530767  0.17571499     0.14900
F731        F  0.06959779  0.78541950  0.16358985    -0.12400
F732        F  0.15264425  0.79070206  0.20433946    -0.12900
F733        F  0.08456230  0.75512668  0.20149245    -0.15200
F734        F  0.13717526  0.82137182  0.16665008    -0.13800
F735        F  0.06682204  0.83126220  0.16744835    -0.13800
F736        F  0.10800561  0.82201379  0.05861680    -0.15200
C737        C  0.96899454  0.15636458  0.85357988     0.14900
C738        C  0.94921898  0.15001487  0.84165170     0.01800
C739        C  0.93989711  0.13082475  0.85157072     0.16800
C740        C  0.95000561  0.11839657  0.87368597     0.26200
C741        C  0.96954494  0.12508588  0.88629124    -0.40100
C742        C  0.97909177  0.14403512  0.87559603     0.33300
C743        C  0.93763243  0.16460165  0.82112274     0.01900
F744        F  0.92083042  0.12433875  0.84017667    -0.12400
F745        F  0.99818350  0.15082964  0.88658746    -0.13000
C746        C  0.94704194  0.17161751  0.79414191     0.16800
C747        C  0.93785406  0.18829313  0.77756198     0.26200
C748        C  0.91903230  0.19817493  0.78770650    -0.40100
C749        C  0.90896331  0.19013524  0.81379579     0.33200
C750        C  0.91824947  0.17357998  0.83036586     0.14900
F751        F  0.96560335  0.16285262  0.78451195    -0.12400
F752        F  0.89087843  0.19920302  0.82459423    -0.12900
F753        F  0.94785190  0.19526719  0.75226179    -0.15200
F754        F  0.90910589  0.16740538  0.85671763    -0.13800
F755        F  0.97811979  0.17507255  0.84486041    -0.13800
F756        F  0.94029659  0.10027766  0.88348414    -0.15200
C757        C  0.09395736  0.13122917  0.91565733     0.14900
C758        C  0.09610720  0.12752152  0.88466900     0.01800
C759        C  0.08203069  0.11352736  0.87006704     0.16800
C760        C  0.06535952  0.10402747  0.88601298     0.26200
C761        C  0.06240947  0.10857108  0.91687535    -0.40100
C762        C  0.07728632  0.12177493  0.93173167     0.33300
C763        C  0.11122537  0.14029163  0.86683913     0.01900
F764        F  0.08356210  0.11020657  0.83990340    -0.12400
F765        F  0.07530759  0.12620021  0.96152895    -0.13000
C766        C  0.12882430  0.13077995  0.85286006     0.16800
C767        C  0.14202241  0.14288390  0.83395551     0.26200
C768        C  0.13753470  0.16463595  0.82852616    -0.40100
C769        C  0.12022490  0.17417345  0.84361013     0.33200
C770        C  0.10717646  0.16205909  0.86241611     0.14900
F771        F  0.13291099  0.10969166  0.85706542    -0.12400
F772        F  0.11523826  0.19505490  0.83925258    -0.12900
F773        F  0.15872418  0.13313160  0.82033100    -0.15200
F774        F  0.08985910  0.17135544  0.87517429    -0.13800
F775        F  0.10754891  0.14472289  0.93002792    -0.13800
F776        F  0.05142077  0.09141958  0.87068979    -0.15200
C777        C  0.02647300  0.94764463  0.99991085     0.14900
C778        C  0.02509798  0.95553938  0.97041855     0.01800
C779        C  0.02772949  0.94168267  0.94592441     0.16800
C780        C  0.03155219  0.91993030  0.95101270     0.26200
C781        C  0.03310672  0.91200575  0.98068461    -0.40100
C782        C  0.03052108  0.92608255  0.00506000     0.33300
C783        C  0.02075712  0.97833944  0.96579046     0.01900
F784        F  0.02657165  0.94923473  0.91723408    -0.12400
F785        F  0.03123054  0.91886118  0.03395208    -0.13000
C786        C  0.03773036  0.99288659  0.96421244     0.16800
C787        C  0.03368238  0.01480429  0.96366892     0.26200
C788        C  0.01254128  0.02238797  0.96435360    -0.40100
C789        C  0.99556786  0.00771940  0.96553348     0.33200
C790        C  0.99968171  0.98581151  0.96641256     0.14900
F791        F  0.05820755  0.98582106  0.96385633    -0.12400
F792        F  0.97507309  0.01461515  0.96708086    -0.12900
F793        F  0.05041019  0.02858324  0.96212933    -0.15200
F794        F  0.98315844  0.97185778  0.96869100    -0.13800
F795        F  0.02373948  0.96090076  0.02375067    -0.13800
F796        F  0.03411388  0.90674509  0.92706589    -0.15200
C797        C  0.64978487  0.79966730  0.31398288     0.14900
C798        C  0.62878972  0.80663735  0.30927477     0.01800
C799        C  0.61687264  0.79829453  0.28523842     0.16800
C800        C  0.62506362  0.78164446  0.26788670     0.26200
C801        C  0.64527514  0.77296218  0.27461713    -0.40100
C802        C  0.65806677  0.78301115  0.29668880     0.33300
C803        C  0.61790272  0.81895344  0.33287660     0.01900
F804        F  0.59661524  0.80511557  0.28018070    -0.12400
F805        F  0.67792872  0.77566985  0.30329977    -0.13000
C806        C  0.61772761  0.84132895  0.33269508     0.16800
C807        C  0.60703648  0.85248840  0.35545541     0.26200
C808        C  0.59631436  0.84132971  0.37860296    -0.40100
C809        C  0.59653466  0.81881684  0.37840586     0.33200
C810        C  0.60730425  0.80780671  0.35583156     0.14900
F811        F  0.62776823  0.85230156  0.31042372    -0.12400
F812        F  0.58656943  0.80733784  0.40025759    -0.12900
F813        F  0.60685152  0.87415207  0.35449270    -0.15200
F814        F  0.60745226  0.78611303  0.35633162    -0.13800
F815        F  0.66160331  0.80778959  0.33697768    -0.13800
F816        F  0.61253741  0.77304064  0.24602592    -0.15200
C817        C  0.57583959  0.61691879  0.36812382     0.14900
C818        C  0.58290950  0.63783490  0.37300291     0.01800
C819        C  0.57470809  0.64964987  0.39706474     0.16800
C820        C  0.55857315  0.64109242  0.41509361     0.26200
C821        C  0.55034790  0.62056182  0.40911093    -0.40100
C822        C  0.55977877  0.60822932  0.38615865     0.33300
C823        C  0.59685674  0.64827917  0.35089505     0.01900
F824        F  0.58143290  0.66998331  0.40188269    -0.12400
F825        F  0.55248020  0.58834202  0.37962841    -0.13000
C826        C  0.58771498  0.65834928  0.32571863     0.16800
C827        C  0.60054376  0.66945208  0.30538453     0.26200
C828        C  0.62276266  0.67046314  0.30983811    -0.40100
C829        C  0.63196815  0.65974547  0.33462028     0.33200
C830        C  0.61901107  0.64884721  0.35519239     0.14900
F831        F  0.56628447  0.65763456  0.32110268    -0.12400
F832        F  0.65335582  0.66046318  0.33952681    -0.12900
F833        F  0.59124815  0.67903349  0.28116609    -0.15200
F834        F  0.62797574  0.63912860  0.37952345    -0.13800
F835        F  0.58362300  0.60540224  0.34473676    -0.13800
F836        F  0.55021351  0.65340804  0.43722751    -0.15200
C837        C  0.96601999  0.66353077  0.17984991     0.14900
C838        C  0.95505290  0.65442584  0.15546173     0.01800
C839        C  0.93303729  0.65755115  0.15238773     0.16800
C840        C  0.92222962  0.67073133  0.17246024     0.26200
C841        C  0.93335999  0.68106659  0.19594707    -0.40100
C842        C  0.95523781  0.67664989  0.20016355     0.33300
C843        C  0.96683698  0.64415649  0.13091551     0.01900
F844        F  0.92231434  0.64906851  0.12859743    -0.12400
F845        F  0.96656350  0.68616133  0.22257060    -0.13000
C846        C  0.96550531  0.62206189  0.12635551     0.16800
C847        C  0.97530423  0.61279102  0.10132649     0.26200
C848        C  0.98644435  0.62562432  0.08046789    -0.40100
C849        C  0.98780368  0.64781429  0.08541770     0.33200
C850        C  0.97808606  0.65694532  0.11043090     0.14900
F851        F  0.95459424  0.60955537  0.14606170    -0.12400
F852        F  0.99799917  0.66087232  0.06562275    -0.12900
F853        F  0.97391142  0.59132654  0.09760664    -0.15200
F854        F  0.97899385  0.67845249  0.11412449    -0.13800
F855        F  0.98738175  0.66059473  0.18300689    -0.13800
F856        F  0.90109769  0.67427129  0.16780593    -0.15200
C857        C  0.92250899  0.79159856  0.11205068     0.14900
C858        C  0.94405962  0.78844703  0.10457327     0.01800
C859        C  0.95721106  0.77674626  0.12423767     0.16800
C860        C  0.94906262  0.76812311  0.15072686     0.26200
C861        C  0.92748883  0.77110125  0.15840597    -0.40100
C862        C  0.91421611  0.78285751  0.13873877     0.33300
C863        C  0.95375792  0.79818618  0.07746049     0.01900
F864        F  0.97824892  0.77402017  0.11806936    -0.12400
F865        F  0.89334508  0.78607697  0.14543806    -0.13000
C866        C  0.95546640  0.82046584  0.07513601     0.16800
C867        C  0.96986194  0.82964594  0.05482244     0.26200
C868        C  0.98301989  0.81660624  0.03686470    -0.40100
C869        C  0.97966773  0.79437851  0.03716138     0.33200
C870        C  0.96497818  0.78528562  0.05708856     0.14900
F871        F  0.94481486  0.83327142  0.09459691    -0.12400
F872        F  0.99150480  0.78130713  0.01952381    -0.12900
F873        F  0.97234086  0.85118689  0.05497915    -0.15200
F874        F  0.96290364  0.76370514  0.05821530    -0.13800
F875        F  0.90952466  0.80298869  0.09347187    -0.13800
F876        F  0.96237286  0.75650046  0.16857602    -0.15200
C877        C  0.81117096  0.69932619  0.27139599     0.14900
C878        C  0.79581273  0.71500938  0.26553388     0.01800
C879        C  0.80219518  0.73569752  0.25745815     0.16800
C880        C  0.82379678  0.74048835  0.25402080     0.26200
C881        C  0.83936082  0.72458612  0.25872773    -0.40100
C882        C  0.83282526  0.70404968  0.26815123     0.33300
C883        C  0.77306315  0.70946645  0.26519304     0.01900
F884        F  0.78740633  0.75102161  0.25168707    -0.12400
F885        F  0.84725510  0.68827871  0.27321032    -0.13000
C886        C  0.75960021  0.71653357  0.28821214     0.16800
C887        C  0.73760110  0.71335615  0.28594818     0.26200
C888        C  0.72882091  0.70348561  0.26022884    -0.40100
C889        C  0.74249563  0.69567226  0.23777544     0.33200
C890        C  0.76451354  0.69855268  0.24036617     0.14900
F891        F  0.76772388  0.72715605  0.31231108    -0.12400
F892        F  0.73453574  0.68562988  0.21307989    -0.12900
F893        F  0.72482968  0.72115610  0.30797818    -0.15200
F894        F  0.77746207  0.69161007  0.21796992    -0.13800
F895        F  0.80511251  0.67930875  0.27958185    -0.13800
F896        F  0.82935897  0.76055538  0.24537535    -0.15200
C897        C  0.44565605  0.17399931  0.30679823     0.14900
C898        C  0.46294770  0.18280059  0.32262095     0.01800
C899        C  0.47145515  0.20250336  0.31334607     0.16800
C900        C  0.46262452  0.21342248  0.28876157     0.26200
C901        C  0.44506631  0.20476776  0.27299117    -0.40100
C902        C  0.43681601  0.18481670  0.28218632     0.33300
C903        C  0.47194628  0.17162592  0.34912210     0.01900
F904        F  0.48847400  0.21107969  0.32802378    -0.12400
F905        F  0.42010623  0.17569644  0.26748353    -0.13000
C906        C  0.48098004  0.15123529  0.34619226     0.16800
C907        C  0.49015794  0.14104918  0.37117153     0.26200
C908        C  0.49030053  0.15107607  0.39955752    -0.40100
C909        C  0.48079415  0.17134743  0.40245809     0.33200
C910        C  0.47172123  0.18149258  0.37746035     0.14900
F911        F  0.48126915  0.14137222  0.31897967    -0.12400
F912        F  0.48065192  0.18164725  0.42934689    -0.12900
F913        F  0.49876302  0.12134553  0.36755895    -0.15200
F914        F  0.46256584  0.20096756  0.38093779    -0.13800
F915        F  0.43700565  0.15509920  0.31561262    -0.13800
F916        F  0.47125841  0.23247395  0.28059034    -0.15200
C917        C  0.13660878  0.31737239  0.14664703     0.14900
C918        C  0.12841306  0.30424609  0.12378194     0.01800
C919        C  0.13086579  0.28200649  0.12612910     0.16800
C920        C  0.14043053  0.27292449  0.15165927     0.26200
C921        C  0.14781940  0.28597148  0.17528815    -0.40100
C922        C  0.14627422  0.30836644  0.17212778     0.33300
C923        C  0.11656798  0.31361715  0.09802806     0.01900
F924        F  0.12386602  0.26907165  0.10365793    -0.12400
F925        F  0.15334544  0.32163550  0.19417742    -0.13000
C926        C  0.12655268  0.32805838  0.07835074     0.16800
C927        C  0.11543933  0.33640853  0.05358996     0.26200
C928        C  0.09400177  0.33056648  0.04810149    -0.40100
C929        C  0.08394057  0.31636058  0.06830894     0.33200
C930        C  0.09513725  0.30802081  0.09301519     0.14900
F931        F  0.14726374  0.33370744  0.08272222    -0.12400
F932        F  0.06334593  0.31027260  0.06408566    -0.12900
F933        F  0.12585662  0.35002788  0.03482657    -0.15200
F934        F  0.08498337  0.29455462  0.11229981    -0.13800
F935        F  0.13447434  0.33892055  0.14489580    -0.13800
F936        F  0.14226544  0.25135466  0.15328924    -0.15200
C937        C  0.26772666  0.22972252  0.24061880     0.14900
C938        C  0.28111774  0.24766128  0.23886879     0.01800
C939        C  0.27246938  0.26812647  0.24275535     0.16800
C940        C  0.25067230  0.27066691  0.24831571     0.26200
C941        C  0.23715849  0.25273914  0.24991013    -0.40100
C942        C  0.24590652  0.23221834  0.24607274     0.33300
C943        C  0.30406881  0.24514445  0.23239426     0.01900
F944        F  0.28507946  0.28569088  0.24025373    -0.12400
F945        F  0.23340388  0.21453585  0.24802356    -0.13000
C946        C  0.31071327  0.23783718  0.20409424     0.16800
C947        C  0.33244249  0.23637882  0.19739923     0.26200
C948        C  0.34795454  0.24214037  0.21902896    -0.40100
C949        C  0.34116643  0.24904088  0.24765418     0.33200
C950        C  0.31940145  0.25057925  0.25419471     0.05300
F951        F  0.29610323  0.23262846  0.18264607    -0.12400
F952        F  0.35553712  0.25408390  0.26949233    -0.12900
F953        F  0.33822255  0.22977059  0.16947710    -0.15200
F954        F  0.31323481  0.25720342  0.28194413    -0.13800
F955        F  0.27584948  0.20978518  0.23726658    -0.13800
F956        F  0.24266805  0.29070236  0.25096590    -0.15200
C957        C  0.44282199  0.68187790  0.61014001     0.14900
C958        C  0.43965292  0.66028213  0.60283071     0.01800
C959        C  0.42920424  0.64686355  0.62350427     0.16800
C960        C  0.42208127  0.65482792  0.65103219     0.26200
C961        C  0.42544849  0.67640329  0.65864470    -0.40100
C962        C  0.43587977  0.68986325  0.63783157     0.33300
C963        C  0.44762626  0.65149372  0.57404009     0.01900
F964        F  0.42627539  0.62583873  0.61730459    -0.12400
F965        F  0.43960801  0.71071663  0.64430852    -0.13000
C966        C  0.46934444  0.65312856  0.56662166     0.16800
C967        C  0.47712015  0.64376887  0.54029246     0.26200
C968        C  0.46332834  0.63238219  0.52094834    -0.40100
C969        C  0.44148503  0.63104012  0.52829666     0.33200
C970        C  0.43373099  0.64062085  0.55445348     0.14900
F971        F  0.48318911  0.66329539  0.58534432    -0.12400
F972        F  0.42753871  0.62033256  0.51035020    -0.12900
F973        F  0.49821077  0.64578317  0.53395873    -0.15200
F974        F  0.41255100  0.63933873  0.56062327    -0.13800
F975        F  0.45247732  0.69531157  0.59031597    -0.13800
F976        F  0.41182060  0.64132596  0.67014029    -0.15200
C977        C  0.12504208  0.78998398  0.84363246     0.14900
C978        C  0.11231599  0.77863416  0.86412280     0.01800
C979        C  0.10987519  0.75649694  0.86071707     0.16800
C980        C  0.11949043  0.74588995  0.83658782     0.26200
C981        C  0.13165406  0.75731076  0.81520948    -0.40100
C982        C  0.13454601  0.77949443  0.81931847     0.33300
C983        C  0.10032620  0.79010882  0.88771997     0.01900
F984        F  0.09791913  0.74519115  0.88065765    -0.12400
F985        F  0.14603843  0.79126537  0.79936538    -0.13000
C986        C  0.07805769  0.79188745  0.88542174     0.16800
C987        C  0.06647077  0.80293425  0.90727193     0.26200
C988        C  0.07698054  0.81247363  0.93192540    -0.40100
C989        C  0.09940695  0.81065944  0.93411648     0.33200
C990        C  0.11094394  0.79959363  0.91215879     0.14900
F991        F  0.06756487  0.78319918  0.86159039    -0.12400
F992        F  0.11020895  0.81925490  0.95775475    -0.12900
F993        F  0.04498729  0.80452754  0.90397273    -0.15200
F994        F  0.13245995  0.79785402  0.91497659    -0.13800
F995        F  0.12756011  0.81142391  0.84651176    -0.13800
F996        F  0.11649074  0.72450788  0.83392078    -0.15200
C997        C  0.30062728  0.70056032  0.71303739     0.14900
C998        C  0.28937835  0.69701344  0.73990139     0.01800
C999        C  0.30037609  0.69020018  0.76577779     0.16800
C1000       C  0.32255702  0.68816772  0.76532808     0.26200
C1001       C  0.33406367  0.69311015  0.73898428    -0.40100
C1002       C  0.32282490  0.69871084  0.71256777     0.33300
C1003       C  0.26656042  0.70243973  0.74169395     0.01900
F1004       F  0.28976914  0.68686579  0.79202186    -0.12400
F1005       F  0.33331989  0.70291344  0.68647214    -0.13000
C1006       C  0.25130445  0.68681001  0.74872967     0.16800
C1007       C  0.22972094  0.69224086  0.75043814     0.26200
C1008       C  0.22311933  0.71344667  0.74513510    -0.40100
C1009       C  0.23857212  0.72910200  0.73854093     0.33200
C1010       C  0.26008926  0.72362692  0.73692612     0.14900
F1011       F  0.25726441  0.66618988  0.75309693    -0.12400
F1012       F  0.23291222  0.74973535  0.73351734    -0.12900
F1013       F  0.21526530  0.67656266  0.75607252    -0.15200
F1014       F  0.27471152  0.73908355  0.73091199    -0.13800
F1015       F  0.29010906  0.70645462  0.68750716    -0.13800
F1016       F  0.33282614  0.68280213  0.79126683    -0.15200
C1017       C  0.95789214  0.80197663  0.41538423     0.14900
C1018       C  0.96782267  0.79716373  0.38802787     0.01800
C1019       C  0.98960846  0.80149747  0.38418828     0.16800
C1020       C  0.00142827  0.81066895  0.40756272     0.26200
C1021       C  0.99158184  0.81538823  0.43520106    -0.40100
C1022       C  0.96968914  0.81090796  0.43891443     0.33300
C1023       C  0.95566778  0.78676398  0.36384212     0.01900
F1024       F  0.99938087  0.79678589  0.35776566    -0.12400
F1025       F  0.95957806  0.81547165  0.46514000    -0.13000
C1026       C  0.94141059  0.79853911  0.34597666     0.16800
C1027       C  0.93049832  0.78866283  0.32227627     0.26200
C1028       C  0.93365609  0.76677227  0.31631547    -0.40100
C1029       C  0.94766603  0.75499453  0.33491460     0.33200
C1030       C  0.95860551  0.76497283  0.35839747     0.14900
F1031       F  0.93845095  0.81969333  0.35111231    -0.12400
F1032       F  0.95125471  0.73391882  0.33002958    -0.12900
F1033       F  0.91706714  0.80060899  0.30506377    -0.15200
F1034       F  0.97222693  0.75339695  0.37581385    -0.13800
F1035       F  0.93683009  0.79773312  0.41939307    -0.13800
F1036       F  0.02255270  0.81446014  0.40337861    -0.15200
C1037       C  0.11462275  0.81144594  0.56391870     0.14900
C1038       C  0.11068810  0.79092785  0.57530290     0.01800
C1039       C  0.09293113  0.77937819  0.56509049     0.16800
C1040       C  0.07817133  0.78891912  0.54570079     0.26200
C1041       C  0.08090305  0.81031019  0.53647756    -0.40100
C1042       C  0.09990727  0.82107549  0.54442031     0.33300
C1043       C  0.12252200  0.78301125  0.60170347     0.01900
F1044       F  0.08883657  0.75955936  0.57619926    -0.12400
F1045       F  0.10358317  0.84143192  0.53513445    -0.13000
C1046       C  0.11744520  0.79111606  0.63021283     0.16800
C1047       C  0.12560069  0.78150946  0.65619500     0.26200
C1048       C  0.13919881  0.76371955  0.65404516    -0.40100
C1049       C  0.14507480  0.75626474  0.62524144     0.33200
C1050       C  0.13659169  0.76576218  0.59925663     0.14900
F1051       F  0.10354048  0.80761080  0.63289555    -0.12400
F1052       F  0.15805478  0.73907603  0.62215819    -0.12900
F1053       F  0.11959973  0.78923548  0.68343932    -0.15200
F1054       F  0.14143414  0.75765634  0.57176958    -0.13800
F1055       F  0.13196436  0.82264967  0.57334187    -0.13800
F1056       F  0.06033508  0.77777234  0.53819219    -0.15200
C1057       C  0.11534620  0.11840833  0.59128211     0.14900
C1058       C  0.10476541  0.13541957  0.60526876     0.01800
C1059       C  0.08478087  0.14196840  0.59430600     0.16800
C1060       C  0.07565181  0.13195024  0.56927328     0.26200
C1061       C  0.08646718  0.11524915  0.55460669    -0.40100
C1062       C  0.10631288  0.10839832  0.56617059     0.33300
C1063       C  0.11483105  0.14667851  0.63084269     0.01900
F1064       F  0.07417428  0.15822445  0.60776418    -0.12400
F1065       F  0.11719171  0.09221107  0.55298021    -0.13000
C1066       C  0.12005899  0.16841943  0.62834134     0.16800
C1067       C  0.12987319  0.17906306  0.65232624     0.26200
C1068       C  0.13477638  0.16807498  0.67922662    -0.40100
C1069       C  0.12936723  0.14624948  0.68166973     0.33200
C1070       C  0.11947949  0.13569286  0.65767275     0.14900
F1071       F  0.11609645  0.17923047  0.60233196    -0.12400
F1072       F  0.13340313  0.13508650  0.70736440    -0.12900
F1073       F  0.13490798  0.20002324  0.64892305    -0.15200
F1074       F  0.11418432  0.11475979  0.66073396    -0.13800
F1075       F  0.13480597  0.11197487  0.60134414    -0.13800
F1076       F  0.05657311  0.13915469  0.55883798    -0.15200
C1077       C  0.11863526  0.16260883  0.39523497     0.14900
C1078       C  0.12683594  0.15381883  0.36870065     0.01800
C1079       C  0.12534074  0.13173895  0.36380938     0.16800
C1080       C  0.11511415  0.11863859  0.38499358     0.26200
C1081       C  0.10599777  0.12763144  0.41100758    -0.40100
C1082       C  0.10829511  0.14968587  0.41619600     0.33300
C1083       C  0.13613922  0.16824697  0.34601181     0.01900
F1084       F  0.13342429  0.12299292  0.33833854    -0.12400
F1085       F  0.10017489  0.15889531  0.44134265    -0.13000
C1086       C  0.15572866  0.17820445  0.35190173     0.16800
C1087       C  0.16275096  0.19500255  0.33368111     0.26200
C1088       C  0.15021437  0.20216624  0.30919337    -0.40100
C1089       C  0.13099620  0.19140874  0.30251744     0.33200
C1090       C  0.12401866  0.17457485  0.32087602     0.14900
F1091       F  0.16761821  0.17219119  0.37613701    -0.12400
F1092       F  0.11829612  0.19798477  0.27943463    -0.12900
F1093       F  0.18159220  0.20458805  0.34054444    -0.15200
F1094       F  0.10479207  0.16532832  0.31528302    -0.13800
F1095       F  0.11998382  0.18394573  0.40029998    -0.13800
F1096       F  0.11326409  0.09741762  0.37935710    -0.15200
C1097       C  0.05420945  0.98888142  0.45087584     0.14900
C1098       C  0.04444356  0.97993860  0.47632756     0.01800
C1099       C  0.03940157  0.99284785  0.50100336     0.16800
C1100       C  0.04410472  0.01460047  0.50034493     0.26200
C1101       C  0.05388210  0.02375883  0.47483038    -0.40100
C1102       C  0.05892612  0.01066184  0.45008185     0.33300
C1103       C  0.04086096  0.95685140  0.47827991     0.01900
F1104       F  0.03041252  0.98420634  0.52606283    -0.12400
F1105       F  0.06806178  0.01893542  0.42489679    -0.13000
C1106       C  0.05835590  0.94321480  0.48195769     0.16800
C1107       C  0.05516714  0.92147729  0.48689038     0.26200
C1108       C  0.03432944  0.91301614  0.48790305    -0.40100
C1109       C  0.01678084  0.92678301  0.48366749     0.33200
C1110       C  0.02007397  0.94857730  0.47889896     0.14900
F1111       F  0.07853672  0.95115552  0.48198955    -0.12400
F1112       F  0.99644231  0.91928120  0.48449263    -0.12900
F1113       F  0.07249566  0.90892919  0.49179177    -0.15200
F1114       F  0.00300532  0.96167578  0.47519457    -0.13800
F1115       F  0.05904229  0.97649810  0.42677754    -0.13800
F1116       F  0.03945810  0.02655806  0.52493087    -0.15200
C1117       C  0.58717587  0.83230831  0.58322393     0.14900
C1118       C  0.60923016  0.83395406  0.58859815     0.01800
C1119       C  0.62229639  0.84308792  0.56627262     0.16800
C1120       C  0.61340085  0.85089501  0.53939673     0.26200
C1121       C  0.59121234  0.84957016  0.53417637    -0.40100
C1122       C  0.57828997  0.83981440  0.55625478     0.33300
C1123       C  0.61846342  0.82641721  0.61765184     0.01900
F1124       F  0.64375698  0.84425635  0.57036106    -0.12400
F1125       F  0.55695449  0.83751220  0.55190815    -0.13000
C1126       C  0.61474358  0.80545884  0.62785423     0.16800
C1127       C  0.62288767  0.79855939  0.65563877     0.26200
C1128       C  0.63523724  0.81239254  0.67368833    -0.40100
C1129       C  0.63895684  0.83338792  0.66337410     0.33200
C1130       C  0.63059655  0.84031637  0.63572757     0.14900
F1131       F  0.60339751  0.79152552  0.61070233    -0.12400
F1132       F  0.65078581  0.84728245  0.67991566    -0.12900
F1133       F  0.61845501  0.77835081  0.66490717    -0.15200
F1134       F  0.63402329  0.86081516  0.62688776    -0.13800
F1135       F  0.57406585  0.82386591  0.60447566    -0.13800
F1136       F  0.62658513  0.85977861  0.51859313    -0.15200
C1137       C  0.94598838  0.64840397  0.91545684     0.14900
C1138       C  0.95619819  0.65717195  0.89018171     0.01800
C1139       C  0.97794568  0.65318333  0.88564815     0.16800
C1140       C  0.98950341  0.64074244  0.90619798     0.26200
C1141       C  0.97950263  0.63201344  0.93187087    -0.40100
C1142       C  0.95750974  0.63594343  0.93619768     0.33300
C1143       C  0.94423353  0.66992279  0.86770338     0.01900
F1144       F  0.98798731  0.66132143  0.86108303    -0.12400
F1145       F  0.94713881  0.62799077  0.96062298    -0.13000
C1146       C  0.94487577  0.69231376  0.86840927     0.16800
C1147       C  0.93552859  0.70432971  0.84511956     0.26200
C1148       C  0.92532451  0.69407311  0.82067692    -0.40100
C1149       C  0.92437192  0.67153876  0.82059810     0.33200
C1150       C  0.93374154  0.65964946  0.84387786     0.14900
F1151       F  0.95503725  0.70250382  0.89132519    -0.12400
F1152       F  0.91503121  0.66085008  0.79746239    -0.12900
F1153       F  0.93699539  0.72594574  0.84619501    -0.15200
F1154       F  0.93326445  0.63799390  0.84262504    -0.13800
F1155       F  0.92489750  0.65203380  0.92011222    -0.13800
F1156       F  0.01054322  0.63735222  0.90089286    -0.15200
C1157       C  0.95886061  0.83107386  0.61881541     0.14900
C1158       C  0.97047725  0.82659773  0.64529402     0.01800
C1159       C  0.99213025  0.83239632  0.64683351     0.16800
C1160       C  0.00256259  0.84023095  0.62130490     0.26200
C1161       C  0.99138139  0.84273953  0.59392867    -0.40100
C1162       C  0.96917008  0.83930639  0.59346026     0.33300
C1163       C  0.96090928  0.81298740  0.66908850     0.01900
F1164       F  0.00348706  0.82924117  0.67259524    -0.12400
F1165       F  0.95765198  0.84213232  0.56775651    -0.13000
C1166       C  0.97082289  0.79358931  0.67696928     0.16800
C1167       C  0.96049869  0.77892675  0.69567205     0.26200
C1168       C  0.93975603  0.78305821  0.70609855    -0.40100
C1169       C  0.93022660  0.80286647  0.69939769     0.33200
C1170       C  0.94084296  0.81782017  0.68134632     0.14900
F1171       F  0.98982079  0.78802558  0.66463632    -0.12400
F1172       F  0.91037139  0.80751447  0.70959255    -0.12900
F1173       F  0.97013557  0.75992909  0.70142702    -0.15200
F1174       F  0.93119616  0.83670625  0.67493455    -0.13800
F1175       F  0.93792792  0.82566386  0.61645987    -0.13800
F1176       F  0.02384002  0.84422195  0.62301092    -0.15200
C1177       C  0.76392023  0.78574953  0.72358600     0.14900
C1178       C  0.77570770  0.78325020  0.75032745     0.01800
C1179       C  0.76597123  0.78762844  0.77806613     0.16800
C1180       C  0.74427908  0.79288063  0.77923970     0.26200
C1181       C  0.73197253  0.79380006  0.75258204    -0.40100
C1182       C  0.74225416  0.79103978  0.72465472     0.33300
C1183       C  0.79740714  0.77400120  0.74951292     0.01900
F1184       F  0.77714348  0.78542527  0.80417829    -0.12400
F1185       F  0.73119042  0.79271384  0.69837123    -0.13000
C1186       C  0.81529311  0.78612138  0.75786456     0.16800
C1187       C  0.83567977  0.77696842  0.75774259     0.26200
C1188       C  0.83851667  0.75541165  0.74938042    -0.40100
C1189       C  0.82042527  0.74334672  0.74106289     0.33200
C1190       C  0.80011576  0.75258533  0.74112301     0.14900
F1191       F  0.81303166  0.80694185  0.76564523    -0.12400
F1192       F  0.82228063  0.72255061  0.73295181    -0.12900
F1193       F  0.85264114  0.78939151  0.76528669    -0.15200
F1194       F  0.78294394  0.74049563  0.73340375    -0.13800
F1195       F  0.77326771  0.78233991  0.69646024    -0.13800
F1196       F  0.73507015  0.79554805  0.80662724    -0.15200
C1197       C  0.45741334  0.82794081  0.08234047     0.14900
C1198       C  0.43564161  0.82991114  0.08904340     0.01800
C1199       C  0.42194585  0.83957073  0.06796604     0.16800
C1200       C  0.42990465  0.84746019  0.04068978     0.26200
C1201       C  0.45184334  0.84597332  0.03403624    -0.40100
C1202       C  0.46546808  0.83585259  0.05509741     0.33300
C1203       C  0.42706544  0.82198069  0.11802071     0.01900
F1204       F  0.40074385  0.84116734  0.07376201    -0.12400
F1205       F  0.48667276  0.83383386  0.04963641    -0.13000
C1206       C  0.41795962  0.83627603  0.13858054     0.16800
C1207       C  0.40901095  0.82879399  0.16544004     0.26200
C1208       C  0.40905142  0.80679471  0.17229754    -0.40100
C1209       C  0.41842111  0.79252140  0.15170483     0.33200
C1210       C  0.42738009  0.80008656  0.12485582     0.14900
F1211       F  0.41806914  0.85758770  0.13282740    -0.12400
F1212       F  0.41875739  0.77119585  0.15731436    -0.12900
F1213       F  0.40072145  0.84319934  0.18496465    -0.15200
F1214       F  0.43603451  0.78598047  0.10521976    -0.13800
F1215       F  0.47097652  0.81879757  0.10253329    -0.13800
F1216       F  0.41603571  0.85646540  0.02081633    -0.15200
C1217       C  0.57247720  0.83560893  0.91938964     0.14900
C1218       C  0.58023714  0.84681844  0.89414795     0.01800
C1219       C  0.57084759  0.86646059  0.88636604     0.16800
C1220       C  0.55294512  0.87381842  0.90188401     0.26200
C1221       C  0.54373228  0.86139777  0.92503182    -0.40100
C1222       C  0.55429845  0.84270895  0.93454629     0.33300
C1223       C  0.59608790  0.83677499  0.87379651     0.01900
F1224       F  0.57792485  0.87778019  0.86221856    -0.12400
F1225       F  0.54645736  0.83063005  0.95746086    -0.13000
C1226       C  0.59192375  0.81639802  0.86193432     0.16800
C1227       C  0.60568295  0.80726860  0.84095009     0.26200
C1228       C  0.62379475  0.81850007  0.83066914    -0.40100
C1229       C  0.62819385  0.83877904  0.84298593     0.33200
C1230       C  0.61451238  0.84777453  0.86442653     0.14900
F1231       F  0.57392766  0.80560174  0.86968426    -0.12400
F1232       F  0.64554061  0.85011412  0.83401286    -0.12900
F1233       F  0.60088903  0.78752614  0.83030025    -0.15200
F1234       F  0.61920819  0.86730096  0.87591014    -0.13800
F1235       F  0.58191944  0.81716254  0.92846195    -0.13800
F1236       F  0.54390929  0.89248783  0.89287426    -0.15200
C1237       C  0.41814684  0.83583941  0.84050854     0.14900
C1238       C  0.43037073  0.82063146  0.82512648     0.01800
C1239       C  0.45217208  0.81868003  0.83167470     0.16800
C1240       C  0.46131731  0.83049529  0.85497575     0.26200
C1241       C  0.44878497  0.84461957  0.87214703    -0.40100
C1242       C  0.42731293  0.84790582  0.86374899     0.33300
C1243       C  0.41995910  0.80360732  0.80754107     0.01900
F1244       F  0.46422808  0.80395180  0.81716751    -0.12400
F1245       F  0.41484504  0.86183448  0.87905650    -0.13000
C1246       C  0.42415825  0.80092859  0.77672137     0.16800
C1247       C  0.41836105  0.78190480  0.76224789     0.26200
C1248       C  0.40849802  0.76527079  0.77862254    -0.40100
C1249       C  0.40307362  0.76876407  0.80902399     0.33200
C1250       C  0.40879081  0.78772037  0.82326588     0.14900
F1251       F  0.43470276  0.81631891  0.76108169    -0.12400
F1252       F  0.39361386  0.75326455  0.82580591    -0.12900
F1253       F  0.42312945  0.77948336  0.73262254    -0.15200
F1254       F  0.40505446  0.78981517  0.85325997    -0.13800
F1255       F  0.39706009  0.83807647  0.83412615    -0.13800
F1256       F  0.48226711  0.82732027  0.86150584    -0.15200
C1257       C  0.55836881  0.17864165  0.83259688     0.14900
C1258       C  0.57905015  0.17389940  0.82266990     0.01800
C1259       C  0.58974354  0.15615457  0.83481107     0.16800
C1260       C  0.58031559  0.14387144  0.85759159     0.26200
C1261       C  0.55984412  0.14900704  0.86849793    -0.40100
C1262       C  0.54876576  0.16625230  0.85516667     0.33300
C1263       C  0.58976001  0.18760204  0.80003065     0.01900
F1264       F  0.60964569  0.15110908  0.82517372    -0.12400
F1265       F  0.52890564  0.17162921  0.86459383    -0.13000
C1266       C  0.59714833  0.20805339  0.80782826     0.16800
C1267       C  0.60863469  0.22041601  0.78698531     0.26200
C1268       C  0.61278631  0.21254040  0.75783744    -0.40100
C1269       C  0.60475786  0.19218723  0.74999759     0.33200
C1270       C  0.59348848  0.17986681  0.77093804     0.14900
F1271       F  0.59369650  0.21579742  0.83594494    -0.12400
F1272       F  0.60808410  0.18390336  0.72216328    -0.12900
F1273       F  0.61574618  0.23999151  0.79545526    -0.15200
F1274       F  0.58624762  0.16025124  0.76283668    -0.13800
F1275       F  0.54753216  0.19538846  0.82052919    -0.13800
F1276       F  0.59143133  0.12716101  0.86925055    -0.15200
C1277       C  0.44061676  0.20929918  0.05936501     0.14900
C1278       C  0.44626799  0.18762055  0.05873404     0.01800
C1279       C  0.44247251  0.17487098  0.08432926     0.16800
C1280       C  0.43439893  0.18393949  0.11072256     0.26200
C1281       C  0.42990662  0.20595454  0.11197202    -0.40100
C1282       C  0.43251304  0.21839822  0.08567334     0.33300
C1283       C  0.45860229  0.17892770  0.03309888     0.01900
F1284       F  0.44781828  0.15386516  0.08439998    -0.12400
F1285       F  0.42831614  0.23966152  0.08574711    -0.13000
C1286       C  0.47846164  0.18798854  0.02584728     0.16800
C1287       C  0.49190232  0.17808879  0.00514382     0.26200
C1288       C  0.48590642  0.15867696  0.99150097    -0.40100
C1289       C  0.46530032  0.15047632  0.99709049     0.33200
C1290       C  0.45179442  0.16052833  0.01776174     0.14900
F1291       F  0.48553563  0.20570372  0.04039121    -0.12400
F1292       F  0.45855371  0.13217742  0.98375282    -0.12900
F1293       F  0.51127520  0.18703194  0.99973695    -0.15200
F1294       F  0.43233485  0.15190699  0.02356760    -0.13800
F1295       F  0.44370073  0.22186838  0.03475039    -0.13800
F1296       F  0.43164611  0.17125425  0.13529884    -0.15200
C1297       C  0.50292811  0.97386610  0.97748675     0.14900
C1298       C  0.49718503  0.98625241  0.95235678     0.01800
C1299       C  0.48453034  0.97724742  0.92956854     0.16800
C1300       C  0.47821029  0.95586955  0.93135327     0.26200
C1301       C  0.48445818  0.94309767  0.95611903    -0.40100
C1302       C  0.49655732  0.95249859  0.97947359     0.33300
C1303       C  0.50412250  0.00870917  0.94999708     0.01900
F1304       F  0.47881347  0.98905875  0.90511642    -0.12400
F1305       F  0.50265468  0.94095591  0.00399414    -0.13000
C1306       C  0.52558801  0.01380846  0.94448085     0.16800
C1307       C  0.53202103  0.03518340  0.94217350     0.26200
C1308       C  0.51700772  0.05175745  0.94532802    -0.40100
C1309       C  0.49547118  0.04645324  0.95065349     0.33200
C1310       C  0.48913842  0.02512694  0.95299298     0.14900
F1311       F  0.54024163  0.99805603  0.94105480    -0.12400
F1312       F  0.48059167  0.06190233  0.95470371    -0.12900
F1313       F  0.55285667  0.03962096  0.93659372    -0.15200
F1314       F  0.46840206  0.02045198  0.95891830    -0.13800
F1315       F  0.51475530  0.98249297  0.00009592    -0.13800
F1316       F  0.46650777  0.94760127  0.90834962    -0.15200
C1317       C  0.94439485  0.16515727  0.11876524     0.14900
C1318       C  0.94491283  0.14281872  0.11735243     0.01800
C1319       C  0.93608376  0.13067496  0.14076714     0.16800
C1320       C  0.92676340  0.14078807  0.16545909     0.26200
C1321       C  0.92597669  0.16329537  0.16697276    -0.40100
C1322       C  0.93500384  0.17537247  0.14333037     0.33300
C1323       C  0.95478654  0.13227697  0.09132933     0.01900
F1324       F  0.93670874  0.10901433  0.13982970    -0.12400
F1325       F  0.93471251  0.19704034  0.14380899    -0.13000
C1326       C  0.97704934  0.13087811  0.08936022     0.16800
C1327       C  0.98656324  0.12207425  0.06382690     0.26200
C1328       C  0.97387897  0.11451560  0.03981156    -0.40100
C1329       C  0.95145265  0.11577078  0.04213718     0.33200
C1330       C  0.94202665  0.12451728  0.06778393     0.14900
F1331       F  0.98955109  0.13818009  0.11217950    -0.12400
F1332       F  0.93860056  0.10918382  0.01925877    -0.12900
F1333       F  0.00818221  0.12102818  0.06265978    -0.15200
F1334       F  0.92043292  0.12593758  0.06934648    -0.13800
F1335       F  0.95288502  0.17705684  0.09612477    -0.13800
F1336       F  0.91875329  0.12846223  0.18799899    -0.15200
C1337       C  0.96342441  0.16314508  0.35268755     0.14900
C1338       C  0.96047731  0.14149701  0.35976025     0.01800
C1339       C  0.94373238  0.13015370  0.34602503     0.16800
C1340       C  0.93027155  0.14025318  0.32513515     0.26200
C1341       C  0.93343636  0.16189825  0.31752374    -0.40100
C1342       C  0.95005211  0.17327678  0.33187430     0.33300
C1343       C  0.97553099  0.13065666  0.38048411     0.01900
F1344       F  0.94050843  0.10923446  0.35277285    -0.12400
F1345       F  0.95364616  0.19420755  0.32555217    -0.13000
C1346       C  0.97799765  0.13772374  0.41030892     0.16800
C1347       C  0.99350642  0.12864424  0.42913017     0.26200
C1348       C  0.00694014  0.11236658  0.41833985    -0.40100
C1349       C  0.00394888  0.10491628  0.38861222     0.33200
C1350       C  0.98842752  0.11401732  0.36991387     0.14900
F1351       F  0.96558409  0.15371687  0.42103779    -0.12400
F1352       F  0.01647988  0.08927334  0.37712832    -0.12900
F1353       F  0.99578103  0.13632222  0.45754802    -0.15200
F1354       F  0.98668056  0.10725735  0.34094472    -0.13800
F1355       F  0.97978238  0.17432655  0.36520181    -0.13800
F1356       F  0.91452379  0.12866575  0.31187325    -0.15200
C1357       C  0.59229342  0.26594196  0.32153690     0.14900
C1358       C  0.59869440  0.28672929  0.32896412     0.01800
C1359       C  0.61621192  0.29597301  0.31436567     0.16800
C1360       C  0.62717140  0.28465711  0.29226327     0.26200
C1361       C  0.62086732  0.26370790  0.28456875    -0.40100
C1362       C  0.60333004  0.25444507  0.29957530     0.33300
C1363       C  0.58718275  0.29896427  0.35197425     0.01900
F1364       F  0.62243378  0.31618146  0.32118880    -0.12400
F1365       F  0.59648136  0.23449827  0.29252212    -0.13000
C1366       C  0.59658558  0.30237258  0.38023616     0.16800
C1367       C  0.58631107  0.31492488  0.40165642     0.26200
C1368       C  0.56638676  0.32437104  0.39505609    -0.40100
C1369       C  0.55697962  0.32078260  0.36659545     0.33200
C1370       C  0.56731746  0.30811913  0.34526713     0.14900
F1371       F  0.61578148  0.29350470  0.38703820    -0.12400
F1372       F  0.53798415  0.32979594  0.35912326    -0.12900
F1373       F  0.59594328  0.31775894  0.42883123    -0.15200
F1374       F  0.55820486  0.30518798  0.31776699    -0.13800
F1375       F  0.57533743  0.25682229  0.33557686    -0.13800
F1376       F  0.64380941  0.29438612  0.27825373    -0.15200
C1377       C  0.61875202  0.15087757  0.12698822     0.14900
C1378       C  0.60214424  0.15815514  0.10838460     0.01800
C1379       C  0.59255462  0.17788485  0.11428622     0.16800
C1380       C  0.59988390  0.19061011  0.13793489     0.26200
C1381       C  0.61723889  0.18392058  0.15598101    -0.40100
C1382       C  0.62623701  0.16362442  0.15071868     0.33300
C1383       C  0.59460881  0.14555142  0.08244205     0.01900
F1384       F  0.57647537  0.18514232  0.09638183    -0.12400
F1385       F  0.64258621  0.15629847  0.16802909    -0.13000
C1386       C  0.57610631  0.13314048  0.08512335     0.16800
C1387       C  0.56633708  0.12458329  0.05948072     0.26200
C1388       C  0.57487063  0.12853425  0.03058139    -0.40100
C1389       C  0.59434215  0.13976680  0.02830481     0.33200
C1390       C  0.60405759  0.14827933  0.05406776     0.14900
F1391       F  0.56684656  0.13035209  0.11248522    -0.12400
F1392       F  0.60337404  0.14364209  0.00104143    -0.12900
F1393       F  0.54790213  0.11343587  0.06293502    -0.15200
F1394       F  0.62197591  0.16031973  0.05110319    -0.13800
F1395       F  0.62797059  0.13165026  0.12175624    -0.13800
F1396       F  0.59054634  0.20991720  0.14214970    -0.15200
C1397       C  0.74586595  0.19421454  0.23806403     0.14900
C1398       C  0.76118283  0.20976702  0.23066493     0.01800
C1399       C  0.75444957  0.23028897  0.22215811     0.16800
C1400       C  0.73273255  0.23506401  0.22029603     0.26200
C1401       C  0.71728790  0.21936275  0.22688546    -0.40100
C1402       C  0.72408146  0.19897911  0.23633699     0.33300
C1403       C  0.78420601  0.20469735  0.23203759     0.01900
F1404       F  0.76895352  0.24579279  0.21583558    -0.12400
F1405       F  0.70970444  0.18340050  0.24282990    -0.13000
C1406       C  0.79698641  0.20669024  0.20621467     0.16800
C1407       C  0.81892164  0.20272793  0.20785352     0.26200
C1408       C  0.82845790  0.19665958  0.23540921    -0.40100
C1409       C  0.81547800  0.19427327  0.26107976     0.33200
C1410       C  0.79358777  0.19833635  0.25939007     0.14900
F1411       F  0.78819234  0.21249667  0.17938186    -0.12400
F1412       F  0.82405704  0.18889371  0.28820437    -0.12900
F1413       F  0.83078721  0.20489928  0.18246233    -0.15200
F1414       F  0.78164854  0.19687739  0.28480066    -0.13800
F1415       F  0.75203040  0.17419488  0.24604000    -0.13800
F1416       F  0.72684940  0.25513338  0.21211980    -0.15200
C1417       C  0.09462417  0.67981303  0.35761899     0.14900
C1418       C  0.09431179  0.65742050  0.35862694     0.01800
C1419       C  0.10581276  0.64588052  0.33704737     0.16800
C1420       C  0.11684668  0.65657866  0.31406197     0.26200
C1421       C  0.11661969  0.67908876  0.31231429    -0.40100
C1422       C  0.10568799  0.69057455  0.33478609     0.33300
C1423       C  0.08150651  0.64623659  0.38184908     0.01900
F1424       F  0.10583789  0.62420549  0.33773836    -0.12400
F1425       F  0.10559846  0.71225460  0.33473071    -0.13000
C1426       C  0.05912862  0.64718370  0.38087414     0.16800
C1427       C  0.04688802  0.63770485  0.40367001     0.26200
C1428       C  0.05684725  0.62716430  0.42807148    -0.40100
C1429       C  0.07937171  0.62586025  0.42851819     0.33200
C1430       C  0.09152668  0.63525834  0.40557362     0.14900
F1431       F  0.04913484  0.65740817  0.35777810    -0.12400
F1432       F  0.08978452  0.61603326  0.45159258    -0.12900
F1433       F  0.02530224  0.63907776  0.40192311    -0.15200
F1434       F  0.11315328  0.63425254  0.40703884    -0.13800
F1435       F  0.08417195  0.69126928  0.37888394    -0.13800
F1436       F  0.12728122  0.64482154  0.29312356    -0.15200
C1437       C  0.94313227  0.66430029  0.55593225     0.14900
C1438       C  0.93563383  0.65514145  0.58285736     0.01800
C1439       C  0.93992132  0.63356877  0.58889032     0.16800
C1440       C  0.95352336  0.62202789  0.57006570     0.26200
C1441       C  0.96314644  0.63195650  0.54491173    -0.40100
C1442       C  0.95674392  0.65280614  0.53702479     0.33300
C1443       C  0.92788684  0.66901919  0.60743548     0.01900
F1444       F  0.93266772  0.62429296  0.61461641    -0.12400
F1445       F  0.96500110  0.66276491  0.51245476    -0.13000
C1446       C  0.90743154  0.66667691  0.61992472     0.16800
C1447       C  0.90155627  0.67862965  0.64533654     0.26200
C1448       C  0.91622834  0.69284679  0.65883321    -0.40100
C1449       C  0.93653305  0.69534836  0.64568001     0.33200
C1450       C  0.94223394  0.68358277  0.62037404     0.14900
F1451       F  0.89329534  0.65267706  0.60772948    -0.12400
F1452       F  0.95115987  0.70903183  0.65745620    -0.12900
F1453       F  0.88178089  0.67584501  0.65712844    -0.15200
F1454       F  0.96227690  0.68574758  0.60918416    -0.13800
F1455       F  0.93865984  0.68499786  0.54927812    -0.13800
F1456       F  0.95840388  0.60159835  0.57774827    -0.15200
C1457       C  0.08523327  0.65182302  0.60178247     0.14900
C1458       C  0.09028415  0.63812334  0.62581906     0.01800
C1459       C  0.08187808  0.61739243  0.62648668     0.16800
C1460       C  0.06835642  0.61043399  0.60332557     0.26200
C1461       C  0.06297264  0.62426695  0.57929185    -0.40100
C1462       C  0.07166279  0.64502930  0.57876193     0.33300
C1463       C  0.10342056  0.64629257  0.65078353     0.01900
F1464       F  0.08673202  0.60396989  0.64960418    -0.12400
F1465       F  0.06708331  0.65885503  0.55599401    -0.13000
C1466       C  0.09357353  0.65303760  0.67742166     0.16800
C1467       C  0.10482868  0.66556359  0.69812488     0.26200
C1468       C  0.12617953  0.67133390  0.69247659    -0.40100
C1469       C  0.13654031  0.66268976  0.66705572     0.33200
C1470       C  0.12512803  0.65048137  0.64622496     0.14900
F1471       F  0.07257457  0.64890676  0.68216775    -0.12400
F1472       F  0.15725811  0.66736787  0.66096854    -0.12900
F1473       F  0.09442742  0.67307649  0.72268047    -0.15200
F1474       F  0.13489309  0.64389188  0.62060369    -0.13800
F1475       F  0.09312254  0.67203425  0.60101058    -0.13800
F1476       F  0.06024940  0.59034239  0.60479299    -0.15200
C1477       C  0.97579016  0.31669999  0.58917287     0.14900
C1478       C  0.95417312  0.31099676  0.59133515     0.01800
C1479       C  0.94054405  0.31445748  0.56666375     0.16800
C1480       C  0.94826334  0.32384817  0.54031491     0.26200
C1481       C  0.96987462  0.32990103  0.53806016    -0.40100
C1482       C  0.98362470  0.32606818  0.56271851     0.33300
C1483       C  0.94547728  0.30213999  0.61960689     0.01900
F1484       F  0.91969674  0.30857293  0.56806669    -0.12400
F1485       F  0.00450141  0.33183857  0.56158082    -0.13000
C1486       C  0.92951468  0.31329152  0.63502549     0.16800
C1487       C  0.92055685  0.30477501  0.66116596     0.26200
C1488       C  0.92742671  0.28485127  0.67244951    -0.40100
C1489       C  0.94358132  0.27375892  0.65701493     0.33200
C1490       C  0.95253203  0.28237495  0.63079810     0.14900
F1491       F  0.92266874  0.33257206  0.62477874    -0.12400
F1492       F  0.95042715  0.25438370  0.66684957    -0.12900
F1493       F  0.90521720  0.31618399  0.67542999    -0.15200
F1494       F  0.96766906  0.27115373  0.61584870    -0.13800
F1495       F  0.98914682  0.31373175  0.61299774    -0.13800
F1496       F  0.93455469  0.32672792  0.51687600    -0.15200
C1497       C  0.94359396  0.32416041  0.33136521     0.14900
C1498       C  0.93270096  0.30517765  0.33824440     0.01800
C1499       C  0.93111676  0.29848494  0.36838321     0.16800
C1500       C  0.94107805  0.31009465  0.39125046     0.26200
C1501       C  0.95270143  0.32874391  0.38440489    -0.40100
C1502       C  0.95339094  0.33599540  0.35430628     0.33300
C1503       C  0.92491250  0.29096769  0.31412396     0.01900
F1504       F  0.92087035  0.28001964  0.37548035    -0.12400
F1505       F  0.96448454  0.35386794  0.34682021    -0.13000
C1506       C  0.93968503  0.28023719  0.29592935     0.16800
C1507       C  0.93300512  0.26353332  0.27734936     0.26200
C1508       C  0.91145755  0.25720058  0.27692428    -0.40100
C1509       C  0.89644586  0.26902204  0.29350067     0.33200
C1510       C  0.90316684  0.28578403  0.31200467     0.14900
F1511       F  0.96084619  0.28468845  0.29817332    -0.12400
F1512       F  0.87542655  0.26372569  0.29285637    -0.12900
F1513       F  0.94796480  0.25227711  0.26208116    -0.15200
F1514       F  0.88862059  0.29625288  0.32907105    -0.13800
F1515       F  0.94524179  0.33086085  0.30232111    -0.13800
F1516       F  0.93972936  0.30276364  0.42003880    -0.15200
C1517       C  0.12538736  0.32511836  0.36103256     0.14900
C1518       C  0.10359010  0.32628848  0.35395481     0.01800
C1519       C  0.09610373  0.31791524  0.32666508     0.16800
C1520       C  0.10990079  0.30695351  0.30767379     0.26200
C1521       C  0.13151639  0.30417562  0.31571806    -0.40100
C1522       C  0.13936502  0.31421274  0.34190878     0.33300
C1523       C  0.08796721  0.33298490  0.37666043     0.01900
F1524       F  0.07509161  0.31932199  0.31927743    -0.12400
F1525       F  0.16018915  0.31234967  0.35001255    -0.13000
C1526       C  0.08208270  0.35443051  0.37964564     0.16800
C1527       C  0.06496154  0.35997594  0.39821055     0.26200
C1528       C  0.05346347  0.34404393  0.41390139    -0.40100
C1529       C  0.06020333  0.32265314  0.41182594     0.33200
C1530       C  0.07723712  0.31722183  0.39324404     0.14900
F1531       F  0.09225047  0.36982390  0.36352277    -0.12400
F1532       F  0.04961332  0.30675435  0.42635686    -0.12900
F1533       F  0.05920701  0.38082792  0.39994019    -0.15200
F1534       F  0.08265342  0.29634936  0.39019596    -0.13800
F1535       F  0.13283224  0.33342967  0.38727375    -0.13800
F1536       F  0.10185444  0.29840436  0.28191738    -0.15200
C1537       C  0.99728600  0.45517534  0.50831881     0.14900
C1538       C  0.99307415  0.46998076  0.48527636     0.01800
C1539       C  0.98570937  0.46277167  0.45715816     0.16800
C1540       C  0.98345688  0.44090676  0.45171550     0.26200
C1541       C  0.98867790  0.42596040  0.47434760    -0.40100
C1542       C  0.99513878  0.43333442  0.50292153     0.33300
C1543       C  0.99780412  0.49280717  0.48982045     0.01900
F1544       F  0.98176575  0.47688577  0.43450613    -0.12400
F1545       F  0.99960343  0.41939351  0.52558836    -0.13000
C1546       C  0.01894793  0.49946010  0.49464655     0.16800
C1547       C  0.02376341  0.52114354  0.49744569     0.26200
C1548       C  0.00747843  0.53652861  0.49519568    -0.40100
C1549       C  0.98623605  0.52975668  0.49101676     0.33200
C1550       C  0.98145492  0.50804282  0.48835876     0.14900
F1551       F  0.03500848  0.48493902  0.49584758    -0.12400
F1552       F  0.97002098  0.54410530  0.49027050    -0.12900
F1553       F  0.04442131  0.52707452  0.50158545    -0.15200
F1554       F  0.96083801  0.50183198  0.48472455    -0.13800
F1555       F  0.00381037  0.46190524  0.53593097    -0.13800
F1556       F  0.97733917  0.43439272  0.42381667    -0.15200
C1557       C  0.63617147  0.64148439  0.06078653     0.14900
C1558       C  0.62299031  0.65625698  0.07536496     0.01800
C1559       C  0.60260168  0.66053297  0.06388345     0.16800
C1560       C  0.59522027  0.64989920  0.03831505     0.26200
C1561       C  0.60817563  0.63474701  0.02376391    -0.40100
C1562       C  0.62886464  0.63081276  0.03505449     0.33300
C1563       C  0.62962922  0.66583386  0.10411005     0.01900
F1564       F  0.58975008  0.67488950  0.07772785    -0.12400
F1565       F  0.64178506  0.61625080  0.02177641    -0.13000
C1566       C  0.64315214  0.68369106  0.10480331     0.16800
C1567       C  0.64914436  0.69267561  0.13244038     0.26200
C1568       C  0.64183105  0.68368079  0.15968519    -0.40100
C1569       C  0.62790446  0.66599627  0.15866068     0.33200
C1570       C  0.62185911  0.65721262  0.13108746     0.14900
F1571       F  0.65041918  0.69244037  0.07873372    -0.12400
F1572       F  0.61979779  0.65736564  0.18431916    -0.12900
F1573       F  0.66235636  0.70987778  0.13252637    -0.15200
F1574       F  0.60840137  0.64019053  0.13063389    -0.13800
F1575       F  0.65585081  0.63698323  0.07202601    -0.13800
F1576       F  0.57543533  0.65463875  0.02767464    -0.15200
C1577       C  0.44875656  0.64604452  0.85583733     0.14900
C1578       C  0.47017630  0.65242476  0.85804993     0.01800
C1579       C  0.47810067  0.66786884  0.83804205     0.16800
C1580       C  0.46494702  0.67666408  0.81579069     0.26200
C1581       C  0.44341133  0.67030725  0.81321967    -0.40100
C1582       C  0.43541475  0.65496898  0.83370505     0.33300
C1583       C  0.48508483  0.64180619  0.87914972     0.01900
F1584       F  0.49890429  0.67392226  0.83944364    -0.12400
F1585       F  0.41477694  0.64841099  0.83222278    -0.13000
C1586       C  0.49224865  0.62112187  0.87280144     0.16800
C1587       C  0.50971268  0.61258631  0.88835601     0.26200
C1588       C  0.52028450  0.62460084  0.91072526    -0.40100
C1589       C  0.51189482  0.64469057  0.91873566     0.33200
C1590       C  0.49451889  0.65326397  0.90287169     0.14900
F1591       F  0.48326163  0.60977158  0.85001196    -0.12400
F1592       F  0.52125257  0.65665611  0.94058659    -0.12900
F1593       F  0.51684295  0.59293281  0.88047192    -0.15200
F1594       F  0.48751099  0.67317459  0.90968274    -0.13800
F1595       F  0.44082434  0.63110722  0.87503625    -0.13800
F1596       F  0.47350810  0.69120608  0.79652718    -0.15200
C1597       C  0.64308715  0.68845369  0.78381723     0.14900
C1598       C  0.65115892  0.68361462  0.81263440     0.01800
C1599       C  0.66594729  0.69748353  0.82608160     0.16800
C1600       C  0.67076106  0.71704610  0.81248436     0.26200
C1601       C  0.66075211  0.72305968  0.78521311    -0.40100
C1602       C  0.64771743  0.70809827  0.77024482     0.33300
C1603       C  0.64015367  0.66763190  0.83157653     0.01900
F1604       F  0.67392823  0.69316053  0.85394408    -0.12400
F1605       F  0.63838666  0.71293994  0.74340685    -0.13000
C1606       C  0.65097245  0.65037390  0.84495813     0.16800
C1607       C  0.64041762  0.63707194  0.86567862     0.26200
C1608       C  0.61896340  0.64106040  0.87340083    -0.40100
C1609       C  0.60826925  0.65827634  0.85950591     0.33200
C1610       C  0.61875266  0.67135332  0.83895513     0.14900
F1611       F  0.67178386  0.64668240  0.83837760    -0.12400
F1612       F  0.58765708  0.66289870  0.86618302    -0.12900
F1613       F  0.65138981  0.62085681  0.87889849    -0.15200
F1614       F  0.60822578  0.68846718  0.82731697    -0.13800
F1615       F  0.62920534  0.67490413  0.77008996    -0.13800
F1616       F  0.68363651  0.73085878  0.82755581    -0.15200
C1617       C  0.50399337  0.30231613  0.85784373     0.14900
C1618       C  0.48304286  0.30810219  0.84997072     0.01800
C1619       C  0.47309403  0.32483491  0.86546336     0.16800
C1620       C  0.48383517  0.33564698  0.88845073     0.26200
C1621       C  0.50484215  0.32990281  0.89660266    -0.40100
C1622       C  0.51481106  0.31307826  0.88096771     0.33300
C1623       C  0.47140001  0.29682065  0.82563024     0.01900
F1624       F  0.45268733  0.33042848  0.85874046    -0.12400
F1625       F  0.53492332  0.30680404  0.88820421    -0.13000
C1626       C  0.46736504  0.27478834  0.82768195     0.16800
C1627       C  0.45543708  0.26442260  0.80531802     0.26200
C1628       C  0.44724824  0.27596065  0.78050593    -0.40100
C1629       C  0.45161003  0.29801852  0.77839462     0.33200
C1630       C  0.46356491  0.30828690  0.80070347     0.14900
F1631       F  0.47448744  0.26340723  0.85179998    -0.12400
F1632       F  0.44454382  0.30973127  0.75455747    -0.12900
F1633       F  0.45165770  0.24316753  0.80827648    -0.15200
F1634       F  0.46766367  0.32949916  0.79784437    -0.13800
F1635       F  0.51405628  0.28636592  0.84290783    -0.13800
F1636       F  0.47344409  0.35159729  0.90291876    -0.15200
C1637       C  0.43984901  0.32955409  0.13881480     0.14900
C1638       C  0.46189258  0.32951538  0.13338319     0.01800
C1639       C  0.47513124  0.31601386  0.15043875     0.16800
C1640       C  0.46622650  0.30086151  0.16987973     0.26200
C1641       C  0.44388330  0.29907859  0.17261661    -0.40100
C1642       C  0.43088418  0.31458354  0.15855132     0.33300
C1643       C  0.47053491  0.33949065  0.10579357     0.01900
F1644       F  0.49653707  0.31588455  0.14574066    -0.12400
F1645       F  0.40933469  0.31404364  0.16154130    -0.13000
C1646       C  0.48651995  0.35515962  0.10723820     0.16800
C1647       C  0.49758951  0.36117502  0.08115108     0.26200
C1648       C  0.49300087  0.35131921  0.05328217    -0.40100
C1649       C  0.47612803  0.33643308  0.05181567     0.33200
C1650       C  0.46499623  0.33067851  0.07778420     0.14900
F1651       F  0.49193703  0.36400174  0.13410681    -0.12400
F1652       F  0.47096521  0.32658482  0.02554681    -0.12900
F1653       F  0.51343339  0.37588680  0.08353804    -0.15200
F1654       F  0.44976218  0.31526987  0.07594280    -0.13800
F1655       F  0.42684494  0.34287180  0.12303134    -0.13800
F1656       F  0.47943975  0.28678087  0.18389096    -0.15200
C1657       C  0.60166660  0.29633515  0.04375207     0.14900
C1658       C  0.61818527  0.30854947  0.05645963     0.01800
C1659       C  0.62084801  0.32987071  0.04748340     0.16800
C1660       C  0.60638364  0.33925178  0.02734744     0.26200
C1661       C  0.58886118  0.32744992  0.01618557    -0.40100
C1662       C  0.58715856  0.30564298  0.02375078     0.33300
C1663       C  0.63054576  0.29959515  0.08185575     0.01900
F1664       F  0.63695146  0.34181734  0.05919179    -0.12400
F1665       F  0.57068804  0.29356347  0.01342149    -0.13000
C1666       C  0.64234403  0.28077689  0.07812200     0.16800
C1667       C  0.64956208  0.26937644  0.10327075     0.26200
C1668       C  0.64495116  0.27664629  0.13253806    -0.40100
C1669       C  0.63472962  0.29647985  0.13611024     0.33200
C1670       C  0.62758601  0.30785927  0.11092777     0.14900
F1671       F  0.64566253  0.27275455  0.05013521    -0.12400
F1672       F  0.63058900  0.30433042  0.16399081    -0.12900
F1673       F  0.65947780  0.25038246  0.09890597    -0.15200
F1674       F  0.61618344  0.32603342  0.11507176    -0.13800
F1675       F  0.59860341  0.27575423  0.05252379    -0.13800
F1676       F  0.60904767  0.36012792  0.01989083    -0.15200
C1677       C  0.56878215  0.50395557  0.97543886     0.14900
C1678       C  0.56914430  0.49205065  0.94870234     0.01800
C1679       C  0.57496214  0.50205355  0.92162084     0.16800
C1680       C  0.57970730  0.52389589  0.92105143     0.26200
C1681       C  0.57870230  0.53611132  0.94766480    -0.40100
C1682       C  0.57354933  0.52579033  0.97499011     0.33300
C1683       C  0.56270939  0.46935205  0.94901609     0.01900
F1684       F  0.57527557  0.49079841  0.89552138    -0.12400
F1685       F  0.57300280  0.53680820  0.00128970    -0.13000
C1686       C  0.54120261  0.46381736  0.95306776     0.16800
C1687       C  0.53511439  0.44236635  0.95513395     0.26200
C1688       C  0.55049699  0.42604566  0.95320587    -0.40100
C1689       C  0.57198972  0.43169341  0.94809909     0.33200
C1690       C  0.57801181  0.45318838  0.94605246     0.14900
F1691       F  0.52610914  0.47926730  0.95519224    -0.12400
F1692       F  0.58736456  0.41649529  0.94644346    -0.12900
F1693       F  0.51416792  0.43760675  0.95916834    -0.15200
F1694       F  0.59890537  0.45827146  0.94226027    -0.13800
F1695       F  0.56365544  0.49439581  0.00197633    -0.13800
F1696       F  0.58436586  0.53321988  0.89418635    -0.15200
loop_ 
_geom_bond_atom_site_label_1 
_geom_bond_atom_site_label_2 
_geom_bond_distance 
_geom_bond_site_symmetry_2 
_ccdc_geom_bond_type 
O1            C4   1.263       .  A
O1           Cd6   2.456       .  S
C2           O11   1.264       .  A
C2            O7   1.267       .  A
C2         C1621   1.486       .  S
O3            C9   1.263       .  A
O3           Cd6   2.454   1_554  S
C4           O12   1.265       .  A
C4         C1661   1.482   1_556  S
C5           O10   1.266       .  A
C5            O8   1.266       .  A
C5         C1688   1.483       .  S
Cd6          O13   2.484   1_556  S
Cd6          O12   2.461       .  S
Cd6          O11   2.444       .  S
Cd6           O7   2.483       .  S
Cd6          O10   2.460       .  S
Cd6           O8   2.468       .  S
C9           O13   1.264       .  A
C9         C1648   1.485       .  S
O14          C17   1.264       .  A
O14         Cd19   2.432       .  S
C15          O24   1.266       .  A
C15          O20   1.266       .  A
C15        C1588   1.485       .  S
O16          C22   1.267       .  A
O16         Cd19   2.510       .  S
C17          O25   1.266       .  A
C17        C1561   1.478   1_556  S
C18          O23   1.266       .  A
C18          O21   1.265       .  A
C18        C1681   1.484       .  S
Cd19         O26   2.407       .  S
Cd19         O25   2.472       .  S
Cd19         O24   2.453       .  S
Cd19         O20   2.477       .  S
Cd19         O23   2.466       .  S
Cd19         O21   2.465       .  S
C22          O26   1.261       .  A
C22        C1608   1.482       .  S
O27          C30   1.268       .  A
O27         Cd32   2.472       .  S
C28          O37   1.265       .  A
C28          O33   1.262       .  A
C28        C1528   1.480       .  S
O29          C35   1.266       .  A
O29         Cd32   2.482       .  S
C30          O38   1.266       .  A
C30        C1481   1.480       .  S
C31          O36   1.265   1_655  A
C31          O34   1.267       .  A
C31        C1541   1.476       .  S
Cd32         O39   2.435       .  S
Cd32         O38   2.429       .  S
Cd32         O37   2.465   1_655  S
Cd32         O33   2.452   1_655  S
Cd32         O36   2.430   1_655  S
Cd32         O34   2.466       .  S
C35          O39   1.263       .  A
C35        C1501   1.479       .  S
O40          C43   1.263       .  A
O40         Cd45   2.445   1_655  S
C41          O50   1.263       .  A
C41          O46   1.268       .  A
C41        C1428   1.490       .  S
O42          C48   1.265       .  A
O42         Cd45   2.458       .  S
C43          O51   1.268       .  A
C43        C1441   1.487       .  S
C44          O49   1.264       .  A
C44          O47   1.266       .  A
C44        C1548   1.475       .  S
Cd45         O52   2.438       .  S
Cd45         O51   2.495   1_455  S
Cd45         O50   2.455       .  S
Cd45         O46   2.500       .  S
Cd45         O49   2.448       .  S
Cd45         O47   2.454       .  S
C48          O52   1.265       .  A
C48        C1461   1.479       .  S
O53          C56   1.268       .  A
O53         Cd58   2.481       .  S
C54          O63   1.265       .  A
C54          O59   1.263       .  A
C54        C1381   1.485       .  S
O55          C61   1.264       .  A
O55         Cd58   2.433       .  S
C56          O64   1.262       .  A
C56        C1361   1.481       .  S
C57          O62   1.263       .  A
C57          O60   1.268       .  A
C57        C1401   1.479       .  S
Cd58         O65   2.453       .  S
Cd58         O64   2.425       .  S
Cd58         O63   2.484       .  S
Cd58         O59   2.451       .  S
Cd58         O62   2.424       .  S
Cd58         O60   2.482       .  S
C61          O65   1.265       .  A
C61        C1668   1.475       .  S
O66          C69   1.267       .  A
O66         Cd71   2.474       .  S
C67          O76   1.265       .  A
C67          O72   1.269       .  A
C67        C1508   1.475       .  S
O68          C74   1.265       .  A
O68         Cd71   2.453       .  S
C69          O77   1.264       .  A
C69        C1321   1.483       .  S
C70          O75   1.268       .  A
C70          O73   1.262       .  A
C70        C1341   1.484       .  S
Cd71         O78   2.457       .  S
Cd71         O77   2.435       .  S
Cd71         O76   2.431       .  S
Cd71         O72   2.459       .  S
Cd71         O75   2.495       .  S
Cd71         O73   2.431       .  S
C74          O78   1.267       .  A
C74        C1408   1.481       .  S
O79          C82   1.265       .  A
O79         Cd84   2.444       .  S
C80          O89   1.264       .  A
C80          O85   1.264       .  A
C80        C1261   1.488       .  S
O81          C87   1.265   1_556  A
O81         Cd84   2.469       .  S
C82          O90   1.267       .  A
C82        C1288   1.486       .  S
C83          O88   1.265       .  A
C83          O86   1.264       .  A
C83        C1308   1.481       .  S
Cd84         O91   2.456   1_556  S
Cd84         O90   2.480       .  S
Cd84         O89   2.482       .  S
Cd84         O85   2.473       .  S
Cd84         O88   2.483       .  S
Cd84         O86   2.455       .  S
C87          O91   1.264       .  A
C87        C1388   1.484       .  S
O92          C95   1.264   1_556  A
O92         Cd97   2.466       .  S
C93         O102   1.264       .  A
C93          O98   1.268       .  A
C93        C1221   1.484       .  S
O94         C100   1.262       .  A
O94         Cd97   2.429       .  S
C95         O103   1.266   1_554  A
C95        C1201   1.487       .  S
C96         O101   1.265       .  A
C96          O99   1.265       .  A
C96        C1301   1.483       .  S
Cd97        O104   2.499       .  S
Cd97        O103   2.481       .  S
Cd97        O102   2.438       .  S
Cd97         O98   2.471       .  S
Cd97        O101   2.455       .  S
Cd97         O99   2.453       .  S
C100        O104   1.266       .  A
C100       C1241   1.483       .  S
O105        C108   1.266       .  A
O105       Cd110   2.463       .  S
C106        O115   1.263       .  A
C106        O111   1.265       .  A
C106       C1148   1.490       .  S
O107        C113   1.267       .  A
O107       Cd110   2.474       .  S
C108        O116   1.264       .  A
C108       C1168   1.476       .  S
C109        O114   1.262       .  A
C109        O112   1.267       .  A
C109       C1448   1.486       .  S
Cd110       O117   2.462       .  S
Cd110       O116   2.450       .  S
Cd110       O115   2.467       .  S
Cd110       O111   2.502       .  S
Cd110       O114   2.432       .  S
Cd110       O112   2.514       .  S
C113        O117   1.265       .  A
C113       C1188   1.488       .  S
O118        C121   1.267       .  A
O118       Cd123   2.475       .  S
C119        O128   1.266       .  A
C119        O124   1.266       .  A
C119       C1128   1.486       .  S
O120        C126   1.267       .  A
O120       Cd123   2.501       .  S
C121        O129   1.263       .  A
C121       C1601   1.481       .  S
C122        O127   1.265       .  A
C122        O125   1.267       .  A
C122       C1181   1.484       .  S
Cd123       O130   2.448       .  S
Cd123       O129   2.439       .  S
Cd123       O128   2.469       .  S
Cd123       O124   2.465       .  S
Cd123       O127   2.451       .  S
Cd123       O125   2.474       .  S
C126        O130   1.263       .  A
C126       C1228   1.488       .  S
O131        C134   1.268       .  A
O131       Cd136   2.454       .  S
C132        O141   1.263       .  A
C132        O137   1.268       .  A
C132       C1348   1.483       .  S
O133        C139   1.268       .  A
O133       Cd136   2.478       .  S
C134        O142   1.266       .  A
C134       C1061   1.481       .  S
C135        O140   1.266       .  A
C135        O138   1.266       .  A
C135       C1101   1.474       .  S
Cd136       O143   2.397       .  S
Cd136       O142   2.439       .  S
Cd136       O141   2.427       .  S
Cd136       O137   2.477       .  S
Cd136       O140   2.440       .  S
Cd136       O138   2.430       .  S
C139        O143   1.263       .  A
C139       C1081   1.475       .  S
O144        C147   1.262   1_655  A
O144       Cd149   2.424   1_655  S
C145        O154   1.265       .  A
C145        O150   1.266       .  A
C145       C1041   1.480       .  S
O146        C152   1.263       .  A
O146       Cd149   2.443       .  S
C147        O155   1.266       .  A
C147       C1021   1.473   1_455  S
C148        O153   1.263       .  A
C148        O151   1.263   1_455  A
C148       C1161   1.478   1_455  S
Cd149       O156   2.430       .  S
Cd149       O155   2.468       .  S
Cd149       O154   2.446       .  S
Cd149       O150   2.440       .  S
Cd149       O153   2.451       .  S
Cd149       O151   2.451   1_455  S
C152        O156   1.263       .  A
C152       C1108   1.474       .  S
O157        C160   1.269       .  A
O157       Cd162   2.478       .  S
C158        O167   1.261       .  A
C158        O163   1.268       .  A
C158       C1468   1.481       .  S
O159        C165   1.262       .  A
O159       Cd162   2.457       .  S
C160        O168   1.266       .  A
C160        C981   1.489       .  S
C161        O166   1.265       .  A
C161        O164   1.266       .  A
C161       C1008   1.476       .  S
Cd162       O169   2.455       .  S
Cd162       O168   2.453       .  S
Cd162       O167   2.424       .  S
Cd162       O163   2.482       .  S
Cd162       O166   2.432       .  S
Cd162       O164   2.445       .  S
C165        O169   1.264       .  A
C165       C1048   1.478       .  S
O170        C173   1.263       .  A
O170       Cd175   2.426       .  S
C171        O180   1.265       .  A
C171        O176   1.266       .  A
C171        C961   1.481       .  S
O172        C178   1.266       .  A
O172       Cd175   2.480       .  S
C173        O181   1.267       .  A
C173       C1248   1.482       .  S
C174        O179   1.265       .  A
C174        O177   1.266       .  A
C174       C1001   1.476       .  S
Cd175       O182   2.447       .  S
Cd175       O181   2.484       .  S
Cd175       O180   2.441       .  S
Cd175       O176   2.460       .  S
Cd175       O179   2.446       .  S
Cd175       O177   2.453       .  S
C178        O182   1.265       .  A
C178       C1581   1.487       .  S
O183        C186   1.270       .  A
O183       Cd188   2.479       .  S
C184        O193   1.266       .  A
C184        O189   1.269       .  A
C184       C1088   1.482       .  S
O185        C191   1.268       .  A
O185       Cd188   2.467       .  S
C186        O194   1.263       .  A
C186        C921   1.483       .  S
C187        O192   1.270       .  A
C187        O190   1.264       .  A
C187       C1521   1.479       .  S
Cd188       O195   2.439       .  S
Cd188       O194   2.427       .  S
Cd188       O193   2.432       .  S
Cd188       O189   2.480       .  S
Cd188       O192   2.491       .  S
Cd188       O190   2.403       .  S
C191        O195   1.265       .  A
C191        C941   1.478       .  S
O196        C199   1.264       .  A
O196       Cd201   2.438       .  S
C197        O206   1.266       .  A
C197        O202   1.265       .  A
C197       C1641   1.483       .  S
O198        C204   1.262       .  A
O198       Cd201   2.458       .  S
C199        O207   1.265       .  A
C199        C901   1.482       .  S
C200        O205   1.265       .  A
C200        O203   1.266       .  A
C200        C948   1.483       .  S
Cd201       O208   2.483       .  S
Cd201       O207   2.472       .  S
Cd201       O206   2.463       .  S
Cd201       O202   2.449       .  S
Cd201       O205   2.451       .  S
Cd201       O203   2.469       .  S
C204        O208   1.265       .  A
C204       C1281   1.484       .  S
O209        C212   1.265       .  A
O209       Cd214   2.446       .  S
C210        O219   1.267       .  A
C210        O215   1.265       .  A
C210        C841   1.479       .  S
O211        C217   1.266       .  A
O211       Cd214   2.439       .  S
C212        O220   1.266       .  A
C212       C1028   1.479       .  S
C213        O218   1.267       .  A
C213        O216   1.263       .  A
C213        C861   1.478       .  S
Cd214       O221   2.438       .  S
Cd214       O220   2.438       .  S
Cd214       O219   2.464       .  S
Cd214       O215   2.421       .  S
Cd214       O218   2.486       .  S
Cd214       O216   2.403       .  S
C217        O221   1.265       .  A
C217        C881   1.478       .  S
O222        C225   1.263       .  A
O222       Cd227   2.425       .  S
C223        O232   1.262       .  A
C223        O228   1.265       .  A
C223        C801   1.483       .  S
O224        C230   1.265       .  A
O224       Cd227   2.465       .  S
C225        O233   1.267       .  A
C225       C1568   1.478       .  S
C226        O231   1.264       .  A
C226        O229   1.267       .  A
C226        C888   1.471       .  S
Cd227       O234   2.429       .  S
Cd227       O233   2.478       .  S
Cd227       O232   2.459       .  S
Cd227       O228   2.468       .  S
Cd227       O231   2.432       .  S
Cd227       O229   2.448       .  S
C230        O234   1.264       .  A
C230        C828   1.472       .  S
O235        C238   1.270       .  A
O235       Cd240   2.455       .  S
C236        O245   1.264   1_554  A
C236        O241   1.267   1_655  A
C236       C1328   1.481       .  S
O237        C243   1.269       .  A
O237       Cd240   2.481   1_655  S
C238        O246   1.265       .  A
C238        C761   1.478       .  S
C239        O244   1.267   1_455  A
C239        O242   1.264       .  A
C239        C788   1.471       .  S
Cd240       O247   2.410   1_455  S
Cd240       O246   2.406       .  S
Cd240       O245   2.445   1_455  S
Cd240       O241   2.462   1_556  S
Cd240       O244   2.454   1_455  S
Cd240       O242   2.432       .  S
C243        O247   1.263       .  A
C243        C741   1.478       .  S
O248        C251   1.269       .  A
O248       Cd253   2.478   1_556  S
C249        O258   1.263       .  A
C249        O254   1.266       .  A
C249        C868   1.482   1_455  S
O250        C256   1.263       .  A
O250       Cd253   2.469       .  S
C251        O259   1.264       .  A
C251        C988   1.486       .  S
C252        O257   1.265       .  A
C252        O255   1.263   1_556  A
C252        C781   1.473       .  S
Cd253       O260   2.449       .  S
Cd253       O259   2.451   1_554  S
Cd253       O258   2.459       .  S
Cd253       O254   2.476       .  S
Cd253       O257   2.480   1_554  S
Cd253       O255   2.427       .  S
C256        O260   1.263       .  A
C256        C721   1.481       .  S
O261        C264   1.267       .  A
O261       Cd266   2.481       .  S
C262        O271   1.265       .  A
C262        O267   1.268       .  A
C262        C928   1.487       .  S
O263        C269   1.265       .  A
O263       Cd266   2.481       .  S
C264        O272   1.261       .  A
C264        C668   1.475       .  S
C265        O270   1.266       .  A
C265        O268   1.268       .  A
C265        C708   1.480       .  S
Cd266       O273   2.434       .  S
Cd266       O272   2.422       .  S
Cd266       O271   2.445   1_556  S
Cd266       O267   2.481   1_556  S
Cd266       O270   2.433       .  S
Cd266       O268   2.449       .  S
C269        O273   1.264       .  A
C269        C681   1.474       .  S
O274        C277   1.265       .  A
O274       Cd279   2.471   1_656  S
C275        O284   1.264       .  A
C275        O280   1.267   1_554  A
C275        C648   1.487       .  S
O276        C282   1.263   1_455  A
O276       Cd279   2.408       .  S
C277        O285   1.268   1_655  A
C277       C1141   1.489       .  S
C278        O283   1.264   1_556  A
C278        O281   1.267       .  A
C278        C701   1.481       .  S
Cd279       O286   2.472   1_455  S
Cd279       O285   2.469   1_554  S
Cd279       O284   2.449       .  S
Cd279       O280   2.489   1_554  S
Cd279       O283   2.446       .  S
Cd279       O281   2.480   1_554  S
C282        O286   1.268       .  A
C282        C848   1.477       .  S
O287        C290   1.264       .  A
O287       Cd292   2.477       .  S
C288        O297   1.266       .  A
C288        O293   1.267       .  A
C288        C728   1.478       .  S
O289        C295   1.266       .  A
O289       Cd292   2.462       .  S
C290        O298   1.265       .  A
C290       C1421   1.489       .  S
C291        O296   1.268       .  A
C291        O294   1.261       .  A
C291        C641   1.491       .  S
Cd292       O299   2.469       .  S
Cd292       O298   2.486       .  S
Cd292       O297   2.445       .  S
Cd292       O293   2.451       .  S
Cd292       O296   2.531       .  S
Cd292       O294   2.443       .  S
C295        O299   1.265       .  A
C295        C628   1.486       .  S
O300        C303   1.267       .  A
O300       Cd305   2.451       .  S
C301        O310   1.265       .  A
C301        O306   1.263       .  A
C301        C581   1.477       .  S
O302        C308   1.265       .  A
O302       Cd305   2.472       .  S
C303        O311   1.268       .  A
C303       C1208   1.483       .  S
C304        O309   1.262       .  A
C304        O307   1.265       .  A
C304        C621   1.481       .  S
Cd305       O312   2.441       .  S
Cd305       O311   2.448       .  S
Cd305       O310   2.459       .  S
Cd305       O306   2.431       .  S
Cd305       O309   2.462       .  S
Cd305       O307   2.472       .  S
C308        O312   1.262       .  A
C308        C608   1.481       .  S
O313        C316   1.263       .  A
O313       Cd318   2.482       .  S
C314        O323   1.263       .  A
C314        O319   1.266       .  A
C314        C908   1.480       .  S
O315        C321   1.266       .  A
O315       Cd318   2.456       .  S
C316        O324   1.264       .  A
C316        C521   1.484       .  S
C317        O322   1.263       .  A
C317        O320   1.265       .  A
C317        C541   1.483       .  S
Cd318       O325   2.467       .  S
Cd318       O324   2.462       .  S
Cd318       O323   2.441       .  S
Cd318       O319   2.475       .  S
Cd318       O322   2.458       .  S
Cd318       O320   2.468       .  S
C321        O325   1.266       .  A
C321        C561   1.486       .  S
O326        C329   1.265       .  A
O326       Cd331   2.485       .  S
C327        O336   1.266       .  A
C327        O332   1.266       .  A
C327       C1121   1.487       .  S
O328        C334   1.266       .  A
O328       Cd331   2.490       .  S
C329        O337   1.261       .  A
C329        C601   1.481       .  S
C330        O335   1.267       .  A
C330        O333   1.267       .  A
C330        C568   1.487       .  S
Cd331       O338   2.447       .  S
Cd331       O337   2.448       .  S
Cd331       O336   2.472       .  S
Cd331       O332   2.458       .  S
Cd331       O335   2.460       .  S
Cd331       O333   2.467       .  S
C334        O338   1.263       .  A
C334        C808   1.483       .  S
O339        C342   1.267       .  A
O339       Cd344   2.470       .  S
C340        O349   1.268       .  A
C340        O345   1.265       .  A
C340        C688   1.484       .  S
O341        C347   1.266       .  A
O341       Cd344   2.484       .  S
C342        O350   1.263       .  A
C342       C1068   1.481       .  S
C343        O348   1.266       .  A
C343        O346   1.265       .  A
C343        C508   1.482       .  S
Cd344       O351   2.419       .  S
Cd344       O350   2.442       .  S
Cd344       O349   2.481       .  S
Cd344       O345   2.432       .  S
Cd344       O348   2.457       .  S
Cd344       O346   2.456       .  S
C347        O351   1.262       .  A
C347        C768   1.481       .  S
O352        C355   1.265       .  A
O352       Cd357   2.483       .  S
C353        O362   1.265       .  A
C353        O358   1.266       .  A
C353        C548   1.480       .  S
O354        C360   1.264       .  A
O354       Cd357   2.466       .  S
C355        O363   1.263       .  A
C355       C1628   1.484       .  S
C356        O361   1.265       .  A
C356        O359   1.264       .  A
C356        C488   1.480       .  S
Cd357       O364   2.466       .  S
Cd357       O363   2.451       .  S
Cd357       O362   2.457       .  S
Cd357       O358   2.449       .  S
Cd357       O361   2.474       .  S
Cd357       O359   2.458       .  S
C360        O364   1.264       .  A
C360        C501   1.479       .  S
O365        C368   1.268       .  A
O365       Cd370   2.443       .  S
C366        O375   1.264       .  A
C366        O371   1.265       .  A
C366        C968   1.484       .  S
O367        C373   1.259       .  A
O367       Cd370   2.429       .  S
C368        O376   1.266       .  A
C368        C821   1.480       .  S
C369        O374   1.264       .  A
C369        O372   1.265       .  A
C369        C468   1.477       .  S
Cd370       O377   2.476       .  S
Cd370       O376   2.436       .  S
Cd370       O375   2.455       .  S
Cd370       O371   2.467       .  S
Cd370       O374   2.452       .  S
Cd370       O372   2.437       .  S
C373        O377   1.265       .  A
C373        C588   1.477       .  S
O378        C381   1.262       .  A
O378       Cd383   2.433       .  S
C379        O388   1.264       .  A
C379        O384   1.266       .  A
C379        C481   1.479       .  S
O380        C386   1.265       .  A
O380       Cd383   2.442       .  S
C381        O389   1.266       .  A
C381       C1368   1.480       .  S
C382        O387   1.264       .  A
C382        O385   1.263       .  A
C382        C461   1.475       .  S
Cd383       O390   2.473       .  S
Cd383       O389   2.475       .  S
Cd383       O388   2.450       .  S
Cd383       O384   2.464       .  S
Cd383       O387   2.438       .  S
Cd383       O385   2.456       .  S
C386        O390   1.265       .  A
C386        C441   1.481       .  S
O391        C394   1.268       .  A
O391       Cd396   2.465       .  S
C392        O401   1.268       .  A
C392        O397   1.264       .  A
C392        C748   1.481       .  S
O393        C399   1.260       .  A
O393       Cd396   2.438       .  S
C394        O402   1.264       .  A
C394       C1488   1.479       .  S
C395        O400   1.265       .  A
C395        O398   1.265       .  A
C395        C428   1.471       .  S
Cd396       O403   2.473       .  S
Cd396       O402   2.420       .  S
Cd396       O401   2.466       .  S
Cd396       O397   2.429       .  S
Cd396       O400   2.443       .  S
Cd396       O398   2.429       .  S
C399        O403   1.262       .  A
C399        C661   1.472       .  S
O404        C407   1.266       .  A
O404       Cd409   2.436       .  S
C405        O414   1.268       .  A
C405        O410   1.261       .  A
C405       C1268   1.490       .  S
O406        C412   1.263       .  A
O406       Cd409   2.466       .  S
C407        O415   1.265       .  A
C407        C448   1.481       .  S
C408        O413   1.265       .  A
C408        O411   1.263       .  A
C408        C421   1.479       .  S
Cd409       O416   2.444       .  S
Cd409       O415   2.465       .  S
Cd409       O414   2.526       .  S
Cd409       O410   2.441       .  S
Cd409       O413   2.467       .  S
Cd409       O411   2.440       .  S
C412        O416   1.265       .  A
C412        C528   1.479       .  S
C417        C418   1.402       .  A
C417        C422   1.396       .  A
C417        F435   1.358       .  S
C418        C423   1.473       .  S
C418        C419   1.403       .  A
C419        C420   1.396       .  A
C419        F424   1.358       .  S
C420        C421   1.409       .  A
C420        F436   1.358       .  S
C421        C422   1.410       .  A
C422        F425   1.358       .  S
C423        C426   1.404       .  A
C423        C430   1.403       .  A
C426        C427   1.397       .  A
C426        F431   1.358       .  S
C427        C428   1.408       .  A
C427        F433   1.358       .  S
C428        C429   1.406       .  A
C429        C430   1.393       .  A
C429        F432   1.358       .  S
C430        F434   1.358       .  S
C437        C438   1.404       .  A
C437        C442   1.395       .  A
C437        F455   1.358       .  S
C438        C443   1.480       .  S
C438        C439   1.406       .  A
C439        C440   1.400       .  A
C439        F444   1.358       .  S
C440        C441   1.410       .  A
C440        F456   1.358       .  S
C441        C442   1.408       .  A
C442        F445   1.358       .  S
C443        C446   1.406       .  A
C443        C450   1.404       .  A
C446        C447   1.392       .  A
C446        F451   1.359       .  S
C447        C448   1.408       .  A
C447        F453   1.358       .  S
C448        C449   1.412       .  A
C449        C450   1.402       .  A
C449        F452   1.358       .  S
C450        F454   1.358       .  S
C457        C458   1.403       .  A
C457        C462   1.392       .  A
C457        F475   1.358       .  S
C458        C463   1.471       .  S
C458        C459   1.402       .  A
C459        C460   1.399       .  A
C459        F464   1.358       .  S
C460        C461   1.411       .  A
C460        F476   1.358       .  S
C461        C462   1.406       .  A
C462        F465   1.358       .  S
C463        C466   1.401       .  A
C463        C470   1.403       .  A
C466        C467   1.398       .  A
C466        F471   1.358       .  S
C467        C468   1.411       .  A
C467        F473   1.358       .  S
C468        C469   1.408       .  A
C469        C470   1.393       .  A
C469        F472   1.358       .  S
C470        F474   1.358       .  S
C477        C478   1.402       .  A
C477        C482   1.396       .  A
C477        F495   1.358       .  S
C478        C483   1.473       .  S
C478        C479   1.402       .  A
C479        C480   1.400       .  A
C479        F484   1.358       .  S
C480        C481   1.411       .  A
C480        F496   1.358       .  S
C481        C482   1.408       .  A
C482        F485   1.358       .  S
C483        C486   1.403       .  A
C483        C490   1.401       .  A
C486        C487   1.398       .  A
C486        F491   1.358       .  S
C487        C488   1.409       .  A
C487        F493   1.358       .  S
C488        C489   1.409       .  A
C489        C490   1.399       .  A
C489        F492   1.357       .  S
C490        F494   1.357       .  S
C497        C498   1.406       .  A
C497        C502   1.398       .  A
C497        F515   1.358       .  S
C498        C503   1.483       .  S
C498        C499   1.406       .  A
C499        C500   1.398       .  A
C499        F504   1.358       .  S
C500        C501   1.408       .  A
C500        F516   1.358       .  S
C501        C502   1.407       .  A
C502        F505   1.358       .  S
C503        C506   1.406       .  A
C503        C510   1.405       .  A
C506        C507   1.399       .  A
C506        F511   1.358       .  S
C507        C508   1.410       .  A
C507        F513   1.358       .  S
C508        C509   1.409       .  A
C509        C510   1.397       .  A
C509        F512   1.358       .  S
C510        F514   1.358       .  S
C517        C518   1.404       .  A
C517        C522   1.397       .  A
C517        F535   1.358       .  S
C518        C523   1.483       .  S
C518        C519   1.407       .  A
C519        C520   1.400       .  A
C519        F524   1.358       .  S
C520        C521   1.410       .  A
C520        F536   1.358       .  S
C521        C522   1.409       .  A
C522        F525   1.357       .  S
C523        C526   1.406       .  A
C523        C530   1.406       .  A
C526        C527   1.402       .  A
C526        F531   1.358       .  S
C527        C528   1.410       .  A
C527        F533   1.358       .  S
C528        C529   1.406       .  A
C529        C530   1.392       .  A
C529        F532   1.358       .  S
C530        F534   1.358       .  S
C537        C538   1.405       .  A
C537        C542   1.397       .  A
C537        F555   1.358       .  S
C538        C543   1.478       .  S
C538        C539   1.403       .  A
C539        C540   1.398       .  A
C539        F544   1.358       .  S
C540        C541   1.411       .  A
C540        F556   1.358       .  S
C541        C542   1.410       .  A
C542        F545   1.358       .  S
C543        C546   1.404       .  A
C543        C550   1.405       .  A
C546        C547   1.400       .  A
C546        F551   1.358       .  S
C547        C548   1.411       .  A
C547        F553   1.358       .  S
C548        C549   1.407       .  A
C549        C550   1.394       .  A
C549        F552   1.358       .  S
C550        F554   1.358       .  S
C557        C558   1.404       .  A
C557        C562   1.400       .  A
C557        F575   1.358       .  S
C558        C563   1.480   1_545  S
C558        C559   1.402       .  A
C559        C560   1.399       .  A
C559        F564   1.358       .  S
C560        C561   1.411       .  A
C560        F576   1.358       .  S
C561        C562   1.411       .  A
C562        F565   1.358       .  S
C563        C566   1.403       .  A
C563        C570   1.404       .  A
C566        C567   1.399       .  A
C566        F571   1.358       .  S
C567        C568   1.411       .  A
C567        F573   1.358       .  S
C568        C569   1.411       .  A
C569        C570   1.400       .  A
C569        F572   1.358       .  S
C570        F574   1.358       .  S
C577        C578   1.401       .  A
C577        C582   1.397       .  A
C577        F595   1.358       .  S
C578        C583   1.470       .  S
C578        C579   1.403       .  A
C579        C580   1.394       .  A
C579        F584   1.359       .  S
C580        C581   1.410       .  A
C580        F596   1.358       .  S
C581        C582   1.410       .  A
C582        F585   1.357       .  S
C583        C586   1.401       .  A
C583        C590   1.403       .  A
C586        C587   1.395       .  A
C586        F591   1.358       .  S
C587        C588   1.412       .  A
C587        F593   1.358       .  S
C588        C589   1.407       .  A
C589        C590   1.395       .  A
C589        F592   1.358       .  S
C590        F594   1.358       .  S
C597        C598   1.402       .  A
C597        C602   1.398       .  A
C597        F615   1.358       .  S
C598        C603   1.476       .  S
C598        C599   1.404       .  A
C599        C600   1.397       .  A
C599        F604   1.358       .  S
C600        C601   1.408       .  A
C600        F616   1.358       .  S
C601        C602   1.411       .  A
C602        F605   1.358       .  S
C603        C606   1.404       .  A
C603        C610   1.402       .  A
C606        C607   1.397       .  A
C606        F611   1.358       .  S
C607        C608   1.411       .  A
C607        F613   1.358       .  S
C608        C609   1.410       .  A
C609        C610   1.398       .  A
C609        F612   1.357       .  S
C610        F614   1.358       .  S
C617        C618   1.405       .  A
C617        C622   1.396       .  A
C617        F635   1.358       .  S
C618        C623   1.481       .  S
C618        C619   1.405       .  A
C619        C620   1.401       .  A
C619        F624   1.358       .  S
C620        C621   1.410       .  A
C620        F636   1.358       .  S
C621        C622   1.407       .  A
C622        F625   1.358       .  S
C623        C626   1.404       .  A
C623        C630   1.404       .  A
C626        C627   1.397       .  A
C626        F631   1.358       .  S
C627        C628   1.409       .  A
C627        F633   1.358       .  S
C628        C629   1.412       .  A
C629        C630   1.401       .  A
C629        F632   1.358       .  S
C630        F634   1.358       .  S
C637        C638   1.406       .  A
C637        C642   1.396       .  A
C637        F655   1.358       .  S
C638        C643   1.490       .  S
C638        C639   1.408       .  A
C639        C640   1.405       .  A
C639        F644   1.358       .  S
C640        C641   1.410       .  A
C640        F656   1.357       .  S
C641        C642   1.411       .  A
C642        F645   1.358       .  S
C643        C646   1.408       .  A
C643        C650   1.406       .  A
C646        C647   1.402       .  A
C646        F651   1.358       .  S
C647        C648   1.410       .  A
C647        F653   1.358       .  S
C648        C649   1.410       .  A
C649        C650   1.399       .  A
C649        F652   1.358       .  S
C650        F654   1.358       .  S
C657        C658   1.406       .  A
C657        C662   1.396       .  A
C657        F675   1.358       .  S
C658        C663   1.475       .  S
C658        C659   1.403       .  A
C659        C660   1.395       .  A
C659        F664   1.358       .  S
C660        C661   1.407       .  A
C660        F676   1.358       .  S
C661        C662   1.407       .  A
C662        F665   1.358       .  S
C663        C666   1.402       .  A
C663        C670   1.406       .  A
C666        C667   1.396       .  A
C666        F671   1.358       .  S
C667        C668   1.410   1_655  A
C667        F673   1.358       .  S
C668        C669   1.406   1_455  A
C669        C670   1.396       .  A
C669        F672   1.358   1_655  S
C670        F674   1.358       .  S
C677        C678   1.406       .  A
C677        C682   1.393       .  A
C677        F695   1.358       .  S
C678        C683   1.480       .  S
C678        C679   1.406       .  A
C679        C680   1.402       .  A
C679        F684   1.358       .  S
C680        C681   1.408       .  A
C680        F696   1.358       .  S
C681        C682   1.404       .  A
C682        F685   1.358       .  S
C683        C686   1.405       .  A
C683        C690   1.403       .  A
C686        C687   1.400       .  A
C686        F691   1.358       .  S
C687        C688   1.410       .  A
C687        F693   1.358       .  S
C688        C689   1.411       .  A
C689        C690   1.396       .  A
C689        F692   1.358       .  S
C690        F694   1.358       .  S
C697        C698   1.404   1_554  A
C697        C702   1.396       .  A
C697        F715   1.358       .  S
C698        C703   1.480       .  S
C698        C699   1.406       .  A
C699        C700   1.400       .  A
C699        F704   1.358       .  S
C700        C701   1.409       .  A
C700        F716   1.358       .  S
C701        C702   1.410   1_556  A
C702        F705   1.358       .  S
C703        C706   1.404       .  A
C703        C710   1.405       .  A
C706        C707   1.397       .  A
C706        F711   1.358   1_556  S
C707        C708   1.410       .  A
C707        F713   1.358   1_556  S
C708        C709   1.408       .  A
C709        C710   1.398       .  A
C709        F712   1.358       .  S
C710        F714   1.358       .  S
C717        C718   1.404       .  A
C717        C722   1.399       .  A
C717        F735   1.358       .  S
C718        C723   1.478       .  S
C718        C719   1.405       .  A
C719        C720   1.395       .  A
C719        F724   1.358       .  S
C720        C721   1.409       .  A
C720        F736   1.358       .  S
C721        C722   1.410       .  A
C722        F725   1.358       .  S
C723        C726   1.405       .  A
C723        C730   1.404       .  A
C726        C727   1.395       .  A
C726        F731   1.358       .  S
C727        C728   1.408       .  A
C727        F733   1.358       .  S
C728        C729   1.409       .  A
C729        C730   1.399       .  A
C729        F732   1.358       .  S
C730        F734   1.358       .  S
C737        C738   1.403       .  A
C737        C742   1.393       .  A
C737        F755   1.358       .  S
C738        C743   1.477       .  S
C738        C739   1.405       .  A
C739        C740   1.400       .  A
C739        F744   1.358       .  S
C740        C741   1.408       .  A
C740        F756   1.357       .  S
C741        C742   1.410       .  A
C742        F745   1.358       .  S
C743        C746   1.405       .  A
C743        C750   1.402       .  A
C746        C747   1.399       .  A
C746        F751   1.358       .  S
C747        C748   1.409       .  A
C747        F753   1.358       .  S
C748        C749   1.411       .  A
C749        C750   1.395       .  A
C749        F752   1.358       .  S
C750        F754   1.358       .  S
C757        C758   1.402       .  A
C757        C762   1.397       .  A
C757        F775   1.358       .  S
C758        C763   1.470       .  S
C758        C759   1.401       .  A
C759        C760   1.395       .  A
C759        F764   1.358       .  S
C760        C761   1.412       .  A
C760        F776   1.358       .  S
C761        C762   1.408       .  A
C762        F765   1.357       .  S
C763        C766   1.402       .  A
C763        C770   1.400       .  A
C766        C767   1.400       .  A
C766        F771   1.358       .  S
C767        C768   1.411       .  A
C767        F773   1.358       .  S
C768        C769   1.411       .  A
C769        C770   1.392       .  A
C769        F772   1.358       .  S
C770        F774   1.359       .  S
C777        C778   1.399       .  A
C777        C782   1.392   1_556  A
C777        F795   1.358   1_556  S
C778        C783   1.468       .  S
C778        C779   1.403       .  A
C779        C780   1.401       .  A
C779        F784   1.358       .  S
C780        C781   1.408       .  A
C780        F796   1.358       .  S
C781        C782   1.407   1_556  A
C782        F785   1.358       .  S
C783        C786   1.401       .  A
C783        C790   1.402   1_455  A
C786        C787   1.396   1_565  A
C786        F791   1.358       .  S
C787        C788   1.408       .  A
C787        F793   1.358       .  S
C788        C789   1.405   1_455  A
C789        C790   1.397   1_545  A
C789        F792   1.358       .  S
C790        F794   1.358       .  S
C797        C798   1.401       .  A
C797        C802   1.399       .  A
C797        F815   1.358       .  S
C798        C803   1.473       .  S
C798        C799   1.401       .  A
C799        C800   1.398       .  A
C799        F804   1.358       .  S
C800        C801   1.410       .  A
C800        F816   1.358       .  S
C801        C802   1.412       .  A
C802        F805   1.358       .  S
C803        C806   1.401       .  A
C803        C810   1.401       .  A
C806        C807   1.403       .  A
C806        F811   1.357       .  S
C807        C808   1.411       .  A
C807        F813   1.357       .  S
C808        C809   1.410       .  A
C809        C810   1.395       .  A
C809        F812   1.358       .  S
C810        F814   1.359       .  S
C817        C818   1.399       .  A
C817        C822   1.396       .  A
C817        F835   1.358       .  S
C818        C823   1.467       .  S
C818        C819   1.400       .  A
C819        C820   1.396       .  A
C819        F824   1.358       .  S
C820        C821   1.410       .  A
C820        F836   1.358       .  S
C821        C822   1.412       .  A
C822        F825   1.358       .  S
C823        C826   1.402       .  A
C823        C830   1.401       .  A
C826        C827   1.394       .  A
C826        F831   1.358       .  S
C827        C828   1.407       .  A
C827        F833   1.358       .  S
C828        C829   1.408       .  A
C829        C830   1.399       .  A
C829        F832   1.358       .  S
C830        F834   1.357       .  S
C837        C838   1.402       .  A
C837        C842   1.398       .  A
C837        F855   1.358       .  S
C838        C843   1.469       .  S
C838        C839   1.400       .  A
C839        C840   1.394       .  A
C839        F844   1.358       .  S
C840        C841   1.410       .  A
C840        F856   1.358       .  S
C841        C842   1.411       .  A
C842        F845   1.358       .  S
C843        C846   1.401       .  A
C843        C850   1.401       .  A
C846        C847   1.399       .  A
C846        F851   1.357       .  S
C847        C848   1.410       .  A
C847        F853   1.358       .  S
C848        C849   1.410       .  A
C849        C850   1.393       .  A
C849        F852   1.358       .  S
C850        F854   1.358       .  S
C857        C858   1.406       .  A
C857        C862   1.404       .  A
C857        F875   1.357       .  S
C858        C863   1.479       .  S
C858        C859   1.403       .  A
C859        C860   1.390       .  A
C859        F864   1.358       .  S
C860        C861   1.408       .  A
C860        F876   1.358       .  S
C861        C862   1.410       .  A
C862        F865   1.358       .  S
C863        C866   1.403       .  A
C863        C870   1.405       .  A
C866        C867   1.399       .  A
C866        F871   1.358       .  S
C867        C868   1.412       .  A
C867        F873   1.358       .  S
C868        C869   1.407       .  A
C869        C870   1.398       .  A
C869        F872   1.358       .  S
C870        F874   1.358       .  S
C877        C878   1.399       .  A
C877        C882   1.396       .  A
C877        F895   1.358       .  S
C878        C883   1.467       .  S
C878        C879   1.401       .  A
C879        C880   1.395       .  A
C879        F884   1.358       .  S
C880        C881   1.410       .  A
C880        F896   1.358       .  S
C881        C882   1.411       .  A
C882        F885   1.358       .  S
C883        C886   1.400       .  A
C883        C890   1.402       .  A
C886        C887   1.396       .  A
C886        F891   1.358       .  S
C887        C888   1.409       .  A
C887        F893   1.358       .  S
C888        C889   1.406       .  A
C889        C890   1.395       .  A
C889        F892   1.358       .  S
C890        F894   1.358       .  S
C897        C898   1.402       .  A
C897        C902   1.396       .  A
C897        F915   1.358       .  S
C898        C903   1.476       .  S
C898        C899   1.404       .  A
C899        C900   1.398       .  A
C899        F904   1.358       .  S
C900        C901   1.410       .  A
C900        F916   1.358       .  S
C901        C902   1.411       .  A
C902        F905   1.358       .  S
C903        C906   1.404       .  A
C903        C910   1.403       .  A
C906        C907   1.399       .  A
C906        F911   1.358       .  S
C907        C908   1.409       .  A
C907        F913   1.358       .  S
C908        C909   1.410       .  A
C909        C910   1.396       .  A
C909        F912   1.358       .  S
C910        F914   1.358       .  S
C917        C918   1.403       .  A
C917        C922   1.398       .  A
C917        F935   1.358       .  S
C918        C923   1.480       .  S
C918        C919   1.405       .  A
C919        C920   1.399       .  A
C919        F924   1.358       .  S
C920        C921   1.408       .  A
C920        F936   1.358       .  S
C921        C922   1.412       .  A
C922        F925   1.358       .  S
C923        C926   1.403       .  A
C923        C930   1.404       .  A
C926        C927   1.399       .  A
C926        F931   1.358       .  S
C927        C928   1.412       .  A
C927        F933   1.358       .  S
C928        C929   1.410       .  A
C929        C930   1.399       .  A
C929        F932   1.357       .  S
C930        F934   1.358       .  S
C937        C938   1.403       .  A
C937        C942   1.398       .  A
C937        F955   1.358       .  S
C938        C943   1.476       .  S
C938        C939   1.404       .  A
C939        C940   1.398       .  A
C939        F944   1.358       .  S
C940        C941   1.407       .  A
C940        F956   1.358       .  S
C941        C942   1.409       .  A
C942        F945   1.358       .  S
C943        C946   1.402       .  A
C943        C950   1.403       .  A
C946        C947   1.398       .  A
C946        F951   1.358       .  S
C947        C948   1.411       .  A
C947        F953   1.358       .  S
C948        C949   1.410       .  A
C949        C950   1.399       .  A
C949        F952   1.358       .  S
C950        F954   1.358       .  S
C957        C958   1.405       .  A
C957        C962   1.399       .  A
C957        F975   1.358       .  S
C958        C963   1.481       .  S
C958        C959   1.405       .  A
C959        C960   1.396       .  A
C959        F964   1.358       .  S
C960        C961   1.409       .  A
C960        F976   1.358       .  S
C961        C962   1.410       .  A
C962        F965   1.358       .  S
C963        C966   1.405       .  A
C963        C970   1.405       .  A
C966        C967   1.398       .  A
C966        F971   1.358       .  S
C967        C968   1.410       .  A
C967        F973   1.358       .  S
C968        C969   1.410       .  A
C969        C970   1.397       .  A
C969        F972   1.358       .  S
C970        F974   1.358       .  S
C977        C978   1.402       .  A
C977        C982   1.400       .  A
C977        F995   1.358       .  S
C978        C983   1.480       .  S
C978        C979   1.403       .  A
C979        C980   1.400       .  A
C979        F984   1.358       .  S
C980        C981   1.411       .  A
C980        F996   1.357       .  S
C981        C982   1.413       .  A
C982        F985   1.358       .  S
C983        C986   1.403       .  A
C983        C990   1.403       .  A
C986        C987   1.399       .  A
C986        F991   1.358       .  S
C987        C988   1.409       .  A
C987        F993   1.357       .  S
C988        C989   1.413       .  A
C989        C990   1.401       .  A
C989        F992   1.358       .  S
C990        F994   1.358       .  S
C997        C998   1.403       .  A
C997       C1002   1.396       .  A
C997       F1015   1.358       .  S
C998       C1003   1.473       .  S
C998        C999   1.402       .  A
C999       C1000   1.396       .  A
C999       F1004   1.358       .  S
C1000      C1001   1.409       .  A
C1000      F1016   1.358       .  S
C1001      C1002   1.408       .  A
C1002      F1005   1.358       .  S
C1003      C1006   1.402       .  A
C1003      C1010   1.403       .  A
C1006      C1007   1.397       .  A
C1006      F1011   1.358       .  S
C1007      C1008   1.410       .  A
C1007      F1013   1.358       .  S
C1008      C1009   1.408       .  A
C1009      C1010   1.394       .  A
C1009      F1012   1.358       .  S
C1010      F1014   1.358       .  S
C1017      C1018   1.400       .  A
C1017      C1022   1.395       .  A
C1017      F1035   1.358       .  S
C1018      C1023   1.467       .  S
C1018      C1019   1.402       .  A
C1019      C1020   1.397   1_655  A
C1019      F1024   1.358       .  S
C1020      C1021   1.407   1_455  A
C1020      F1036   1.358       .  S
C1021      C1022   1.410       .  A
C1022      F1025   1.358       .  S
C1023      C1026   1.401       .  A
C1023      C1030   1.399       .  A
C1026      C1027   1.397       .  A
C1026      F1031   1.358       .  S
C1027      C1028   1.411       .  A
C1027      F1033   1.358       .  S
C1028      C1029   1.410       .  A
C1029      C1030   1.394       .  A
C1029      F1032   1.358       .  S
C1030      F1034   1.358       .  S
C1037      C1038   1.401       .  A
C1037      C1042   1.398       .  A
C1037      F1055   1.358       .  S
C1038      C1043   1.469       .  S
C1038      C1039   1.401       .  A
C1039      C1040   1.394       .  A
C1039      F1044   1.358       .  S
C1040      C1041   1.410       .  A
C1040      F1056   1.358       .  S
C1041      C1042   1.412       .  A
C1042      F1045   1.358       .  S
C1043      C1046   1.402       .  A
C1043      C1050   1.400       .  A
C1046      C1047   1.394       .  A
C1046      F1051   1.358       .  S
C1047      C1048   1.407       .  A
C1047      F1053   1.358       .  S
C1048      C1049   1.412       .  A
C1049      C1050   1.399       .  A
C1049      F1052   1.358       .  S
C1050      F1054   1.358       .  S
C1057      C1058   1.403       .  A
C1057      C1062   1.397       .  A
C1057      F1075   1.358       .  S
C1058      C1063   1.477       .  S
C1058      C1059   1.403       .  A
C1059      C1060   1.397       .  A
C1059      F1064   1.358       .  S
C1060      C1061   1.410       .  A
C1060      F1076   1.358       .  S
C1061      C1062   1.410       .  A
C1062      F1065   1.358       .  S
C1063      C1066   1.404       .  A
C1063      C1070   1.402       .  A
C1066      C1067   1.397       .  A
C1066      F1071   1.358       .  S
C1067      C1068   1.408       .  A
C1067      F1073   1.358       .  S
C1068      C1069   1.412       .  A
C1069      C1070   1.397       .  A
C1069      F1072   1.358       .  S
C1070      F1074   1.358       .  S
C1077      C1078   1.401       .  A
C1077      C1082   1.392       .  A
C1077      F1095   1.358       .  S
C1078      C1083   1.471       .  S
C1078      C1079   1.403       .  A
C1079      C1080   1.401       .  A
C1079      F1084   1.357       .  S
C1080      C1081   1.409       .  A
C1080      F1096   1.358       .  S
C1081      C1082   1.408       .  A
C1082      F1085   1.358       .  S
C1083      C1086   1.400       .  A
C1083      C1090   1.403       .  A
C1086      C1087   1.396       .  A
C1086      F1091   1.358       .  S
C1087      C1088   1.410       .  A
C1087      F1093   1.358       .  S
C1088      C1089   1.410       .  A
C1089      C1090   1.400       .  A
C1089      F1092   1.358       .  S
C1090      F1094   1.358       .  S
C1097      C1098   1.401       .  A
C1097      C1102   1.396   1_565  A
C1097      F1115   1.358       .  S
C1098      C1103   1.465       .  S
C1098      C1099   1.400       .  A
C1099      C1100   1.394   1_565  A
C1099      F1104   1.358       .  S
C1100      C1101   1.409       .  A
C1100      F1116   1.358       .  S
C1101      C1102   1.410       .  A
C1102      F1105   1.358       .  S
C1103      C1106   1.399       .  A
C1103      C1110   1.401       .  A
C1106      C1107   1.392       .  A
C1106      F1111   1.358       .  S
C1107      C1108   1.409       .  A
C1107      F1113   1.358       .  S
C1108      C1109   1.410       .  A
C1109      C1110   1.396       .  A
C1109      F1112   1.358   1_455  S
C1110      F1114   1.358       .  S
C1117      C1118   1.405       .  A
C1117      C1122   1.398       .  A
C1117      F1135   1.358       .  S
C1118      C1123   1.486       .  S
C1118      C1119   1.407       .  A
C1119      C1120   1.401       .  A
C1119      F1124   1.358       .  S
C1120      C1121   1.411       .  A
C1120      F1136   1.358       .  S
C1121      C1122   1.410       .  A
C1122      F1125   1.358       .  S
C1123      C1126   1.406       .  A
C1123      C1130   1.406       .  A
C1126      C1127   1.399       .  A
C1126      F1131   1.358       .  S
C1127      C1128   1.410       .  A
C1127      F1133   1.358       .  S
C1128      C1129   1.410       .  A
C1129      C1130   1.399       .  A
C1129      F1132   1.358       .  S
C1130      F1134   1.358       .  S
C1137      C1138   1.403       .  A
C1137      C1142   1.403       .  A
C1137      F1155   1.358       .  S
C1138      C1143   1.478       .  S
C1138      C1139   1.401       .  A
C1139      C1140   1.398       .  A
C1139      F1144   1.358       .  S
C1140      C1141   1.410       .  A
C1140      F1156   1.357   1_655  S
C1141      C1142   1.414       .  A
C1142      F1145   1.358       .  S
C1143      C1146   1.403       .  A
C1143      C1150   1.400       .  A
C1146      C1147   1.403       .  A
C1146      F1151   1.358       .  S
C1147      C1148   1.412       .  A
C1147      F1153   1.358       .  S
C1148      C1149   1.412       .  A
C1149      C1150   1.399       .  A
C1149      F1152   1.357       .  S
C1150      F1154   1.358       .  S
C1157      C1158   1.407       .  A
C1157      C1162   1.396       .  A
C1157      F1175   1.358       .  S
C1158      C1163   1.482       .  S
C1158      C1159   1.405       .  A
C1159      C1160   1.397   1_655  A
C1159      F1164   1.358   1_655  S
C1160      C1161   1.408   1_455  A
C1160      F1176   1.358       .  S
C1161      C1162   1.408       .  A
C1162      F1165   1.358       .  S
C1163      C1166   1.408       .  A
C1163      C1170   1.406       .  A
C1166      C1167   1.395       .  A
C1166      F1171   1.358       .  S
C1167      C1168   1.406       .  A
C1167      F1173   1.358       .  S
C1168      C1169   1.408       .  A
C1169      C1170   1.399       .  A
C1169      F1172   1.358       .  S
C1170      F1174   1.358       .  S
C1177      C1178   1.403       .  A
C1177      C1182   1.399       .  A
C1177      F1195   1.358       .  S
C1178      C1183   1.479       .  S
C1178      C1179   1.403       .  A
C1179      C1180   1.400       .  A
C1179      F1184   1.358       .  S
C1180      C1181   1.410       .  A
C1180      F1196   1.358       .  S
C1181      C1182   1.410       .  A
C1182      F1185   1.358       .  S
C1183      C1186   1.402       .  A
C1183      C1190   1.404       .  A
C1186      C1187   1.401       .  A
C1186      F1191   1.358       .  S
C1187      C1188   1.413       .  A
C1187      F1193   1.358       .  S
C1188      C1189   1.410       .  A
C1189      C1190   1.399       .  A
C1189      F1192   1.358       .  S
C1190      F1194   1.358       .  S
C1197      C1198   1.403       .  A
C1197      C1202   1.400       .  A
C1197      F1215   1.358       .  S
C1198      C1203   1.479       .  S
C1198      C1199   1.403       .  A
C1199      C1200   1.399       .  A
C1199      F1204   1.358       .  S
C1200      C1201   1.410       .  A
C1200      F1216   1.357       .  S
C1201      C1202   1.412       .  A
C1202      F1205   1.358       .  S
C1203      C1206   1.404       .  A
C1203      C1210   1.403       .  A
C1206      C1207   1.398       .  A
C1206      F1211   1.358       .  S
C1207      C1208   1.410       .  A
C1207      F1213   1.358       .  S
C1208      C1209   1.410       .  A
C1209      C1210   1.399       .  A
C1209      F1212   1.358       .  S
C1210      F1214   1.358       .  S
C1217      C1218   1.407       .  A
C1217      C1222   1.399       .  A
C1217      F1235   1.358       .  S
C1218      C1223   1.486       .  S
C1218      C1219   1.406       .  A
C1219      C1220   1.398       .  A
C1219      F1224   1.358       .  S
C1220      C1221   1.411       .  A
C1220      F1236   1.358       .  S
C1221      C1222   1.408       .  A
C1222      F1225   1.358       .  S
C1223      C1226   1.406       .  A
C1223      C1230   1.407       .  A
C1226      C1227   1.396       .  A
C1226      F1231   1.359       .  S
C1227      C1228   1.411       .  A
C1227      F1233   1.358       .  S
C1228      C1229   1.411       .  A
C1229      C1230   1.403       .  A
C1229      F1232   1.357       .  S
C1230      F1234   1.358       .  S
C1237      C1238   1.404       .  A
C1237      C1242   1.401       .  A
C1237      F1255   1.358       .  S
C1238      C1243   1.473       .  S
C1238      C1239   1.401       .  A
C1239      C1240   1.394       .  A
C1239      F1244   1.359       .  S
C1240      C1241   1.411       .  A
C1240      F1256   1.358       .  S
C1241      C1242   1.410       .  A
C1242      F1245   1.357       .  S
C1243      C1246   1.404       .  A
C1243      C1250   1.401       .  A
C1246      C1247   1.402       .  A
C1246      F1251   1.358       .  S
C1247      C1248   1.411       .  A
C1247      F1253   1.358       .  S
C1248      C1249   1.410       .  A
C1249      C1250   1.392       .  A
C1249      F1252   1.358       .  S
C1250      F1254   1.358       .  S
C1257      C1258   1.403       .  A
C1257      C1262   1.401       .  A
C1257      F1275   1.358       .  S
C1258      C1263   1.481       .  S
C1258      C1259   1.403       .  A
C1259      C1260   1.400       .  A
C1259      F1264   1.358       .  S
C1260      C1261   1.411       .  A
C1260      F1276   1.358       .  S
C1261      C1262   1.412       .  A
C1262      F1265   1.358       .  S
C1263      C1266   1.405       .  A
C1263      C1270   1.400       .  A
C1266      C1267   1.404       .  A
C1266      F1271   1.358       .  S
C1267      C1268   1.411       .  A
C1267      F1273   1.357       .  S
C1268      C1269   1.414       .  A
C1269      C1270   1.398       .  A
C1269      F1272   1.358       .  S
C1270      F1274   1.358       .  S
C1277      C1278   1.404       .  A
C1277      C1282   1.398       .  A
C1277      F1295   1.358       .  S
C1278      C1283   1.483       .  S
C1278      C1279   1.406       .  A
C1279      C1280   1.400       .  A
C1279      F1284   1.358       .  S
C1280      C1281   1.409       .  A
C1280      F1296   1.358       .  S
C1281      C1282   1.410       .  A
C1282      F1285   1.358       .  S
C1283      C1286   1.405       .  A
C1283      C1290   1.405       .  A
C1286      C1287   1.396       .  A
C1286      F1291   1.358       .  S
C1287      C1288   1.410   1_554  A
C1287      F1293   1.358   1_554  S
C1288      C1289   1.411       .  A
C1289      C1290   1.402   1_556  A
C1289      F1292   1.358       .  S
C1290      F1294   1.358       .  S
C1297      C1298   1.402       .  A
C1297      C1302   1.398       .  A
C1297      F1315   1.358   1_556  S
C1298      C1303   1.475   1_565  S
C1298      C1299   1.402       .  A
C1299      C1300   1.398       .  A
C1299      F1304   1.358       .  S
C1300      C1301   1.411       .  A
C1300      F1316   1.358       .  S
C1301      C1302   1.411       .  A
C1302      F1305   1.358   1_556  S
C1303      C1306   1.404       .  A
C1303      C1310   1.401       .  A
C1306      C1307   1.401       .  A
C1306      F1311   1.358   1_545  S
C1307      C1308   1.410       .  A
C1307      F1313   1.358       .  S
C1308      C1309   1.410       .  A
C1309      C1310   1.396       .  A
C1309      F1312   1.358       .  S
C1310      F1314   1.358       .  S
C1317      C1318   1.401       .  A
C1317      C1322   1.398       .  A
C1317      F1335   1.358       .  S
C1318      C1323   1.471       .  S
C1318      C1319   1.400       .  A
C1319      C1320   1.397       .  A
C1319      F1324   1.358       .  S
C1320      C1321   1.412       .  A
C1320      F1336   1.358       .  S
C1321      C1322   1.410       .  A
C1322      F1325   1.357       .  S
C1323      C1326   1.401       .  A
C1323      C1330   1.401       .  A
C1326      C1327   1.397       .  A
C1326      F1331   1.358       .  S
C1327      C1328   1.409       .  A
C1327      F1333   1.358   1_655  S
C1328      C1329   1.412       .  A
C1329      C1330   1.398       .  A
C1329      F1332   1.358       .  S
C1330      F1334   1.358       .  S
C1337      C1338   1.403       .  A
C1337      C1342   1.396       .  A
C1337      F1355   1.358       .  S
C1338      C1343   1.479       .  S
C1338      C1339   1.404       .  A
C1339      C1340   1.401       .  A
C1339      F1344   1.358       .  S
C1340      C1341   1.410       .  A
C1340      F1356   1.357       .  S
C1341      C1342   1.412       .  A
C1342      F1345   1.358       .  S
C1343      C1346   1.404       .  A
C1343      C1350   1.403       .  A
C1346      C1347   1.399       .  A
C1346      F1351   1.358       .  S
C1347      C1348   1.409   1_655  A
C1347      F1353   1.358       .  S
C1348      C1349   1.412       .  A
C1349      C1350   1.397   1_455  A
C1349      F1352   1.358       .  S
C1350      F1354   1.358       .  S
C1357      C1358   1.402       .  A
C1357      C1362   1.399       .  A
C1357      F1375   1.358       .  S
C1358      C1363   1.470       .  S
C1358      C1359   1.400       .  A
C1359      C1360   1.395       .  A
C1359      F1364   1.358       .  S
C1360      C1361   1.412       .  A
C1360      F1376   1.358       .  S
C1361      C1362   1.410       .  A
C1362      F1365   1.357       .  S
C1363      C1366   1.400       .  A
C1363      C1370   1.402       .  A
C1366      C1367   1.395       .  A
C1366      F1371   1.358       .  S
C1367      C1368   1.412       .  A
C1367      F1373   1.358       .  S
C1368      C1369   1.410       .  A
C1369      C1370   1.398       .  A
C1369      F1372   1.358       .  S
C1370      F1374   1.358       .  S
C1377      C1378   1.401       .  A
C1377      C1382   1.402       .  A
C1377      F1395   1.357       .  S
C1378      C1383   1.473       .  S
C1378      C1379   1.401       .  A
C1379      C1380   1.395       .  A
C1379      F1384   1.358       .  S
C1380      C1381   1.411       .  A
C1380      F1396   1.358       .  S
C1381      C1382   1.412       .  A
C1382      F1385   1.357       .  S
C1383      C1386   1.400       .  A
C1383      C1390   1.403       .  A
C1386      C1387   1.398       .  A
C1386      F1391   1.358       .  S
C1387      C1388   1.412       .  A
C1387      F1393   1.358       .  S
C1388      C1389   1.411       .  A
C1389      C1390   1.399       .  A
C1389      F1392   1.358       .  S
C1390      F1394   1.358       .  S
C1397      C1398   1.405       .  A
C1397      C1402   1.399       .  A
C1397      F1415   1.358       .  S
C1398      C1403   1.479       .  S
C1398      C1399   1.403       .  A
C1399      C1400   1.396       .  A
C1399      F1404   1.358       .  S
C1400      C1401   1.409       .  A
C1400      F1416   1.358       .  S
C1401      C1402   1.408       .  A
C1402      F1405   1.358       .  S
C1403      C1406   1.405       .  A
C1403      C1410   1.403       .  A
C1406      C1407   1.399       .  A
C1406      F1411   1.358       .  S
C1407      C1408   1.410       .  A
C1407      F1413   1.358       .  S
C1408      C1409   1.409       .  A
C1409      C1410   1.397       .  A
C1409      F1412   1.357       .  S
C1410      F1414   1.358       .  S
C1417      C1418   1.403       .  A
C1417      C1422   1.400       .  A
C1417      F1435   1.358       .  S
C1418      C1423   1.481       .  S
C1418      C1419   1.403       .  A
C1419      C1420   1.402       .  A
C1419      F1424   1.358       .  S
C1420      C1421   1.412       .  A
C1420      F1436   1.358       .  S
C1421      C1422   1.411       .  A
C1422      F1425   1.358       .  S
C1423      C1426   1.404       .  A
C1423      C1430   1.402       .  A
C1426      C1427   1.401       .  A
C1426      F1431   1.358       .  S
C1427      C1428   1.410       .  A
C1427      F1433   1.357       .  S
C1428      C1429   1.414       .  A
C1429      C1430   1.401       .  A
C1429      F1432   1.358       .  S
C1430      F1434   1.358       .  S
C1437      C1438   1.405       .  A
C1437      C1442   1.400       .  A
C1437      F1455   1.358       .  S
C1438      C1443   1.480       .  S
C1438      C1439   1.403       .  A
C1439      C1440   1.399       .  A
C1439      F1444   1.358       .  S
C1440      C1441   1.412       .  A
C1440      F1456   1.358       .  S
C1441      C1442   1.409       .  A
C1442      F1445   1.357       .  S
C1443      C1446   1.405       .  A
C1443      C1450   1.402       .  A
C1446      C1447   1.406       .  A
C1446      F1451   1.358       .  S
C1447      C1448   1.412       .  A
C1447      F1453   1.358       .  S
C1448      C1449   1.410       .  A
C1449      C1450   1.393       .  A
C1449      F1452   1.358       .  S
C1450      F1454   1.359       .  S
C1457      C1458   1.402       .  A
C1457      C1462   1.394       .  A
C1457      F1475   1.358       .  S
C1458      C1463   1.470       .  S
C1458      C1459   1.401       .  A
C1459      C1460   1.399       .  A
C1459      F1464   1.358       .  S
C1460      C1461   1.412       .  A
C1460      F1476   1.358       .  S
C1461      C1462   1.409       .  A
C1462      F1465   1.358       .  S
C1463      C1466   1.402       .  A
C1463      C1470   1.400       .  A
C1466      C1467   1.398       .  A
C1466      F1471   1.358       .  S
C1467      C1468   1.408       .  A
C1467      F1473   1.357       .  S
C1468      C1469   1.413       .  A
C1469      C1470   1.396       .  A
C1469      F1472   1.358       .  S
C1470      F1474   1.358       .  S
C1477      C1478   1.404       .  A
C1477      C1482   1.400       .  A
C1477      F1495   1.358       .  S
C1478      C1483   1.475       .  S
C1478      C1479   1.402       .  A
C1479      C1480   1.394       .  A
C1479      F1484   1.358       .  S
C1480      C1481   1.409       .  A
C1480      F1496   1.358       .  S
C1481      C1482   1.410       .  A
C1482      F1485   1.358   1_655  S
C1483      C1486   1.402       .  A
C1483      C1490   1.403       .  A
C1486      C1487   1.394       .  A
C1486      F1491   1.358       .  S
C1487      C1488   1.410       .  A
C1487      F1493   1.358       .  S
C1488      C1489   1.409       .  A
C1489      C1490   1.399       .  A
C1489      F1492   1.358       .  S
C1490      F1494   1.358       .  S
C1497      C1498   1.403       .  A
C1497      C1502   1.400       .  A
C1497      F1515   1.358       .  S
C1498      C1503   1.475       .  S
C1498      C1499   1.403       .  A
C1499      C1500   1.395       .  A
C1499      F1504   1.358       .  S
C1500      C1501   1.408       .  A
C1500      F1516   1.358       .  S
C1501      C1502   1.409       .  A
C1502      F1505   1.357       .  S
C1503      C1506   1.404       .  A
C1503      C1510   1.403       .  A
C1506      C1507   1.397       .  A
C1506      F1511   1.358       .  S
C1507      C1508   1.407       .  A
C1507      F1513   1.358       .  S
C1508      C1509   1.409       .  A
C1509      C1510   1.398       .  A
C1509      F1512   1.358       .  S
C1510      F1514   1.358       .  S
C1517      C1518   1.402       .  A
C1517      C1522   1.402       .  A
C1517      F1535   1.357       .  S
C1518      C1523   1.470       .  S
C1518      C1519   1.400       .  A
C1519      C1520   1.393       .  A
C1519      F1524   1.359       .  S
C1520      C1521   1.410       .  A
C1520      F1536   1.358       .  S
C1521      C1522   1.409       .  A
C1522      F1525   1.357       .  S
C1523      C1526   1.400       .  A
C1523      C1530   1.401       .  A
C1526      C1527   1.400       .  A
C1526      F1531   1.358       .  S
C1527      C1528   1.413       .  A
C1527      F1533   1.358       .  S
C1528      C1529   1.409       .  A
C1529      C1530   1.394       .  A
C1529      F1532   1.358       .  S
C1530      F1534   1.358       .  S
C1537      C1538   1.402       .  A
C1537      C1542   1.396       .  A
C1537      F1555   1.358   1_655  S
C1538      C1543   1.474       .  S
C1538      C1539   1.404       .  A
C1539      C1540   1.398       .  A
C1539      F1544   1.358       .  S
C1540      C1541   1.408       .  A
C1540      F1556   1.358       .  S
C1541      C1542   1.408       .  A
C1542      F1545   1.358       .  S
C1543      C1546   1.404   1_655  A
C1543      C1550   1.402       .  A
C1546      C1547   1.396       .  A
C1546      F1551   1.358       .  S
C1547      C1548   1.408       .  A
C1547      F1553   1.358       .  S
C1548      C1549   1.408   1_455  A
C1549      C1550   1.397       .  A
C1549      F1552   1.358       .  S
C1550      F1554   1.358       .  S
C1557      C1558   1.402       .  A
C1557      C1562   1.400       .  A
C1557      F1575   1.358       .  S
C1558      C1563   1.469       .  S
C1558      C1559   1.399       .  A
C1559      C1560   1.394       .  A
C1559      F1564   1.358       .  S
C1560      C1561   1.410       .  A
C1560      F1576   1.358       .  S
C1561      C1562   1.410       .  A
C1562      F1565   1.358       .  S
C1563      C1566   1.402       .  A
C1563      C1570   1.400       .  A
C1566      C1567   1.400       .  A
C1566      F1571   1.358       .  S
C1567      C1568   1.409       .  A
C1567      F1573   1.358       .  S
C1568      C1569   1.410       .  A
C1569      C1570   1.394       .  A
C1569      F1572   1.358       .  S
C1570      F1574   1.358       .  S
C1577      C1578   1.403       .  A
C1577      C1582   1.402       .  A
C1577      F1595   1.358       .  S
C1578      C1583   1.477       .  S
C1578      C1579   1.402       .  A
C1579      C1580   1.396       .  A
C1579      F1584   1.358       .  S
C1580      C1581   1.411       .  A
C1580      F1596   1.358       .  S
C1581      C1582   1.412       .  A
C1582      F1585   1.358       .  S
C1583      C1586   1.401       .  A
C1583      C1590   1.404       .  A
C1586      C1587   1.397       .  A
C1586      F1591   1.358       .  S
C1587      C1588   1.410       .  A
C1587      F1593   1.357       .  S
C1588      C1589   1.411       .  A
C1589      C1590   1.401       .  A
C1589      F1592   1.358       .  S
C1590      F1594   1.358       .  S
C1597      C1598   1.405       .  A
C1597      C1602   1.398       .  A
C1597      F1615   1.358       .  S
C1598      C1603   1.476       .  S
C1598      C1599   1.402       .  A
C1599      C1600   1.397       .  A
C1599      F1604   1.358       .  S
C1600      C1601   1.411       .  A
C1600      F1616   1.358       .  S
C1601      C1602   1.408       .  A
C1602      F1605   1.358       .  S
C1603      C1606   1.405       .  A
C1603      C1610   1.402       .  A
C1606      C1607   1.405       .  A
C1606      F1611   1.358       .  S
C1607      C1608   1.411       .  A
C1607      F1613   1.358       .  S
C1608      C1609   1.409       .  A
C1609      C1610   1.389       .  A
C1609      F1612   1.358       .  S
C1610      F1614   1.359       .  S
C1617      C1618   1.405       .  A
C1617      C1622   1.401       .  A
C1617      F1635   1.358       .  S
C1618      C1623   1.481       .  S
C1618      C1619   1.403       .  A
C1619      C1620   1.396       .  A
C1619      F1624   1.358       .  S
C1620      C1621   1.411       .  A
C1620      F1636   1.358       .  S
C1621      C1622   1.411       .  A
C1622      F1625   1.358       .  S
C1623      C1626   1.405       .  A
C1623      C1630   1.404       .  A
C1626      C1627   1.400       .  A
C1626      F1631   1.358       .  S
C1627      C1628   1.410       .  A
C1627      F1633   1.358       .  S
C1628      C1629   1.411       .  A
C1629      C1630   1.397       .  A
C1629      F1632   1.358       .  S
C1630      F1634   1.358       .  S
C1637      C1638   1.403       .  A
C1637      C1642   1.399       .  A
C1637      F1655   1.358       .  S
C1638      C1643   1.476       .  S
C1638      C1639   1.403       .  A
C1639      C1640   1.397       .  A
C1639      F1644   1.358       .  S
C1640      C1641   1.410       .  A
C1640      F1656   1.358       .  S
C1641      C1642   1.411       .  A
C1642      F1645   1.358       .  S
C1643      C1646   1.402       .  A
C1643      C1650   1.403       .  A
C1646      C1647   1.401       .  A
C1646      F1651   1.358       .  S
C1647      C1648   1.412       .  A
C1647      F1653   1.357       .  S
C1648      C1649   1.410       .  A
C1649      C1650   1.395       .  A
C1649      F1652   1.358       .  S
C1650      F1654   1.359       .  S
C1657      C1658   1.404       .  A
C1657      C1662   1.395       .  A
C1657      F1675   1.359       .  S
C1658      C1663   1.474       .  S
C1658      C1659   1.402       .  A
C1659      C1660   1.399       .  A
C1659      F1664   1.358       .  S
C1660      C1661   1.412       .  A
C1660      F1676   1.358       .  S
C1661      C1662   1.409       .  A
C1662      F1665   1.358       .  S
C1663      C1666   1.403       .  A
C1663      C1670   1.404       .  A
C1666      C1667   1.396       .  A
C1666      F1671   1.358       .  S
C1667      C1668   1.408       .  A
C1667      F1673   1.358       .  S
C1668      C1669   1.408       .  A
C1669      C1670   1.396       .  A
C1669      F1672   1.358       .  S
C1670      F1674   1.358       .  S
C1677      C1678   1.403       .  A
C1677      C1682   1.399       .  A
C1677      F1695   1.358   1_556  S
C1678      C1683   1.477       .  S
C1678      C1679   1.402       .  A
C1679      C1680   1.400       .  A
C1679      F1684   1.358       .  S
C1680      C1681   1.410       .  A
C1680      F1696   1.358       .  S
C1681      C1682   1.410       .  A
C1682      F1685   1.358   1_556  S
C1683      C1686   1.403       .  A
C1683      C1690   1.402       .  A
C1686      C1687   1.399       .  A
C1686      F1691   1.358       .  S
C1687      C1688   1.409       .  A
C1687      F1693   1.358       .  S
C1688      C1689   1.411       .  A
C1689      C1690   1.400       .  A
C1689      F1692   1.358       .  S
C1690      F1694   1.358       .  S
