geometry optimzed in LAMMPS
_audit_creation_date              2020-11-30 
_audit_creation_method            'lammps2cif' 
_symmetry_space_group_name_H-M    'P1' 
_symmetry_Int_Tables_number       1 
_symmetry_cell_setting            triclinic 
loop_ 
_symmetry_equiv_pos_as_xyz 
  x,y,z 
_cell_length_a                    36.67334112356937 
_cell_length_b                    36.673473369370896 
_cell_length_c                    15.78550611582634 
_cell_angle_alpha                 89.99477648483733 
_cell_angle_beta                  90.003315530999 
_cell_angle_gamma                 90.00097828597212 
loop_ 
_atom_site_label 
_atom_site_type_symbol 
_atom_site_fract_x 
_atom_site_fract_y 
_atom_site_fract_z 
_atom_site_charge 
O1          O  0.44573949  0.64443510  0.36311800    -0.70050
O2          O  0.33658864  0.64617980  0.36173134    -0.71030
O3          O  0.39025360  0.59244472  0.06344678    -0.59650
O4          O  0.39211010  0.69803978  0.32705517    -0.68060
O5          O  0.39241506  0.68125368  0.19180669    -0.67610
O6          O  0.39054962  0.57631301  0.26110185    -0.58870
O7          O  0.33661375  0.62963732  0.22629601    -0.71380
O8          O  0.44638661  0.62786003  0.22770855    -0.70160
Cu9        Cu  0.39118413  0.64587424  0.36685950     1.04560
Cu10       Cu  0.39149523  0.62821545  0.22202209     1.04330
C11         C  0.46316330  0.63579698  0.29613933     0.96150
C12         C  0.31948927  0.63807889  0.29395828     0.95290
C13         C  0.39008686  0.56788636  0.33946437     0.87430
C14         C  0.39251484  0.70606968  0.24834809     0.93700
O15         O  0.33650239  0.87231530  0.06100596    -0.70050
O16         O  0.44565007  0.87406721  0.05935134    -0.71030
O17         O  0.39204264  0.82046545  0.09558927    -0.59650
O18         O  0.39014469  0.92604862  0.02578341    -0.68060
O19         O  0.39050729  0.94220286  0.16144426    -0.67610
O20         O  0.39241213  0.83727150  0.23082347    -0.58870
O21         O  0.44636296  0.89066294  0.19474572    -0.71380
O22         O  0.33659151  0.88887922  0.19642727    -0.70160
Cu23       Cu  0.39109392  0.87262434  0.05574464     1.04560
Cu24       Cu  0.39147472  0.89030561  0.20056608     1.04330
C25         C  0.31943540  0.88042555  0.12881173     0.96150
C26         C  0.46310621  0.88271490  0.12628243     0.95290
C27         C  0.39248710  0.81244716  0.17430153     0.87430
C28         C  0.39000521  0.95061679  0.08307523     0.93700
O29         O  0.19130463  0.64618777  0.22785165    -0.70050
O30         O  0.08215691  0.64442488  0.22617665    -0.71030
O31         O  0.13575908  0.69802904  0.26241783    -0.59650
O32         O  0.13766861  0.59245227  0.19262594    -0.68060
O33         O  0.13730827  0.57628917  0.32828794    -0.67610
O34         O  0.13539201  0.68121699  0.06432258    -0.58870
O35         O  0.08144553  0.62782260  0.02823901    -0.71380
O36         O  0.19121991  0.62961666  0.02994502    -0.70160
Cu37       Cu  0.13671315  0.64587340  0.22258098     1.04560
Cu38       Cu  0.13633513  0.62818458  0.03407231     1.04330
C39         C  0.20837422  0.63807483  0.29566008     0.96150
C40         C  0.06470132  0.63577335  0.29310487     0.95290
C41         C  0.13531417  0.70604369  0.00779576     0.87430
C42         C  0.13781206  0.56788061  0.24991942     0.93700
O43         O  0.19124250  0.87233157  0.19499124    -0.70210
O44         O  0.08209351  0.87407672  0.19652383    -0.71030
O45         O  0.13571180  0.82046661  0.16045622    -0.59650
O46         O  0.13758996  0.92607065  0.23004432    -0.68060
O47         O  0.13725383  0.94218274  0.09434857    -0.67610
O48         O  0.13536794  0.83723206  0.02518681    -0.58870
O49         O  0.08140757  0.89063081  0.06109405    -0.71380
O50         O  0.19117805  0.88885317  0.05953486    -0.70160
Cu51       Cu  0.13664931  0.87263779  0.20019385     1.04560
Cu52       Cu  0.13629634  0.89027450  0.05533386     1.04330
C53         C  0.20832184  0.88042190  0.12718535     0.96150
C54         C  0.06465081  0.88270491  0.12955673     0.95290
C55         C  0.13528532  0.81242486  0.08175974     0.87430
C56         C  0.13773969  0.95062071  0.17270035     0.93700
O57         O  0.39537747  0.44170532  0.11144691    -0.70050
O58         O  0.39357089  0.33193285  0.11291932    -0.71030
O59         O  0.44690495  0.38585355  0.07804096    -0.59650
O60         O  0.34197704  0.38775016  0.14741721    -0.68060
O61         O  0.32516527  0.38743826  0.01218030    -0.67610
O62         O  0.43074097  0.38555003  0.27570773    -0.58870
O63         O  0.37700116  0.33190142  0.97749626    -0.71380
O64         O  0.37877522  0.44105032  0.97604987    -0.70160
Cu65       Cu  0.39500954  0.38681450  0.11716203     1.04560
Cu66       Cu  0.37732141  0.38649576  0.97233873     1.04330
C67         C  0.38742883  0.45847786  0.04301423     0.96150
C68         C  0.38510922  0.31480535  0.04527272     0.95290
C69         C  0.45531421  0.38538338  0.99967111     0.87430
C70         C  0.31715043  0.38785259  0.09089217     0.93700
O71         O  0.13257063  0.44175602  0.14433365    -0.70050
O72         O  0.13433226  0.33198446  0.14255951    -0.71030
O73         O  0.08101168  0.38590304  0.17748901    -0.59650
O74         O  0.18596105  0.38780157  0.10830709    -0.68060
O75         O  0.20273031  0.38740544  0.24357185    -0.67610
O76         O  0.09712723  0.38551390  0.31318056    -0.58870
O77         O  0.15085782  0.33186939  0.27801182    -0.71380
O78         O  0.14912800  0.44101680  0.27975841    -0.70160
Cu79       Cu  0.13291917  0.38686877  0.13846488     1.04560
Cu80       Cu  0.15055976  0.38645969  0.28331999     1.04330
C81         C  0.14050033  0.45848599  0.21282779     0.96150
C82         C  0.14276122  0.31481537  0.21017779     0.95290
C83         C  0.07257559  0.38538748  0.25584155     0.87430
C84         C  0.21076996  0.38786047  0.16487431     0.93700
O85         O  0.39350480  0.18654226  0.30927053    -0.70050
O86         O  0.39527194  0.07676844  0.97758469    -0.71030
O87         O  0.34188372  0.13073107  0.27489247    -0.59650
O88         O  0.44682304  0.13261530  0.01086523    -0.68060
O89         O  0.43068601  0.13296380  0.14653876    -0.67610
O90         O  0.32509340  0.13108631  0.07680947    -0.58870
O91         O  0.37869257  0.07746726  0.11299109    -0.71380
O92         O  0.37695738  0.18661601  0.11137554    -0.70160
Cu93       Cu  0.39492139  0.13165847  0.30511107     1.04560
Cu94       Cu  0.37725771  0.13202360  0.11661696     1.04330
C95         C  0.38506481  0.20369085  0.04357168     0.96150
C96         C  0.38733099  0.06001783  0.04604970     0.95290
C97         C  0.31706588  0.13065309  0.33143184     0.87430
C98         C  0.45524685  0.13310897  0.08922773     0.93700
O99         O  0.13246649  0.07679664  0.27795176    -0.70050
O100        O  0.13426363  0.18656660  0.27943821    -0.71030
O101        O  0.08093210  0.13264598  0.24456119    -0.59650
O102        O  0.18586524  0.13075234  0.31392051    -0.68060
O103        O  0.20266794  0.13107870  0.17868203    -0.67610
O104        O  0.09708292  0.13296461  0.10889617    -0.58870
O105        O  0.15082376  0.18661405  0.14401301    -0.71380
O106        O  0.14905920  0.07746498  0.14255272    -0.70160
Cu107      Cu  0.13283032  0.13168579  0.28367350     1.04560
Cu108      Cu  0.15050798  0.13202010  0.13884749     1.04330
C109        C  0.14041103  0.06003102  0.20951696     0.96150
C110        C  0.14271931  0.20370187  0.21179374     0.95290
C111        C  0.07251619  0.13312296  0.16619310     0.87430
C112        C  0.21068819  0.13065822  0.25739331     0.93700
O113        O  0.58217224  0.37408020  0.36284764    -0.70050
O114        O  0.69131915  0.37232700  0.36112687    -0.71030
O115        O  0.63768622  0.42606118  0.06301799    -0.59650
O116        O  0.63577293  0.32047705  0.32661049    -0.68060
O117        O  0.63538902  0.33727745  0.19136547    -0.67610
O118        O  0.63730681  0.44221130  0.26067830    -0.58870
O119        O  0.69121648  0.38888551  0.22569507    -0.71380
O120        O  0.58144426  0.39067041  0.22744310    -0.70160
Cu121      Cu  0.63672856  0.37263687  0.36642129     1.04560
Cu122      Cu  0.63633230  0.39031252  0.22158883     1.04330
C123        C  0.56470859  0.38272490  0.29592190     0.96150
C124        C  0.70837940  0.38043436  0.29330635     0.95290
C125        C  0.63781861  0.45062750  0.33904217     0.87430
C126        C  0.63531951  0.31245560  0.24790383     0.93700
O127        O  0.58208661  0.14443150  0.05916305    -0.70050
O128        O  0.69123644  0.14618393  0.06063673    -0.71030
O129        O  0.63758031  0.09244500  0.02558258    -0.59650
O130        O  0.63570848  0.19804129  0.09523267    -0.68060
O131        O  0.63538422  0.18126189  0.23049267    -0.67610
O132        O  0.63726386  0.07631817  0.16126885    -0.58870
O133        O  0.69119263  0.12964793  0.19608335    -0.71380
O134        O  0.58141995  0.12786292  0.19458336    -0.70160
Cu135      Cu  0.63664218  0.14587451  0.05546473     1.04560
Cu136      Cu  0.63631045  0.12822244  0.20031402     1.04330
C137        C  0.56465322  0.13579524  0.12613350     0.96150
C138        C  0.70832639  0.13808710  0.12842818     0.95290
C139        C  0.63773869  0.06788869  0.08291186     0.87430
C140        C  0.63529219  0.20607495  0.17393374     0.93700
O141        O  0.94573062  0.37407467  0.22569535    -0.70050
O142        O  0.83658053  0.37233393  0.22715169    -0.71030
O143        O  0.89024182  0.42607006  0.19209750    -0.59650
O144        O  0.89210391  0.32046846  0.26176456    -0.68060
O145        O  0.89243269  0.33724262  0.06369255    -0.67610
O146        O  0.89056168  0.44218896  0.32778206    -0.58870
O147        O  0.83663084  0.38886408  0.02926440    -0.71380
O148        O  0.94640152  0.39063720  0.02778540    -0.70160
Cu149      Cu  0.89117489  0.37263791  0.22198757     1.04560
Cu150      Cu  0.89151194  0.39028347  0.03350485     1.04330
C151        C  0.96316526  0.38270545  0.29266889     0.96150
C152        C  0.81949325  0.38042901  0.29494002     0.95290
C153        C  0.89008621  0.45062317  0.24942426     0.87430
C154        C  0.89252203  0.31243174  0.00713893     0.93700
O155        O  0.94566738  0.14443871  0.19612602    -0.70050
O156        O  0.83651895  0.14619778  0.19452723    -0.71030
O157        O  0.89016082  0.09246385  0.22974339    -0.59650
O158        O  0.89205987  0.19804093  0.15989411    -0.68060
O159        O  0.89240937  0.18122530  0.02466627    -0.67610
O160        O  0.89050346  0.07629893  0.09408933    -0.58870
O161        O  0.83658704  0.12962369  0.05911287    -0.71380
O162        O  0.94636056  0.12783280  0.06073828    -0.70160
Cu163      Cu  0.89111146  0.14588543  0.19975976     1.04560
Cu164      Cu  0.89147065  0.12819334  0.05494585     1.04330
C165        C  0.96311399  0.13578525  0.12919047     0.96150
C166        C  0.81944116  0.13808320  0.12673397     0.95290
C167        C  0.89001096  0.06789123  0.17246220     0.87430
C168        C  0.89249461  0.20605361  0.08117871     0.93700
O169        O  0.63256572  0.57676427  0.11121170    -0.70050
O170        O  0.63432336  0.68653593  0.11291597    -0.71030
O171        O  0.58100685  0.63261000  0.07798999    -0.59650
O172        O  0.68595244  0.63072621  0.14723576    -0.68060
O173        O  0.70273065  0.63110742  0.01198146    -0.67610
O174        O  0.59712979  0.63298511  0.27564290    -0.58870
O175        O  0.65085804  0.68663680  0.97747408    -0.71380
O176        O  0.64913198  0.57748844  0.97579684    -0.70160
Cu177      Cu  0.63291203  0.63165220  0.11704509     1.04560
Cu178      Cu  0.65056194  0.63204546  0.97220084     1.04330
C179        C  0.64050099  0.56002661  0.04273373     0.96150
C180        C  0.64275613  0.70369798  0.04529251     0.95290
C181        C  0.57257501  0.63311624  0.99963245     0.87430
C182        C  0.71076526  0.63066142  0.09068440     0.93700
O183        O  0.89356672  0.68658692  0.14277959    -0.70050
O184        O  0.89536932  0.57681500  0.14418626    -0.71030
O185        O  0.84197175  0.63077456  0.10822127    -0.59650
O186        O  0.94689706  0.63266192  0.17765146    -0.68060
O187        O  0.93072953  0.63295096  0.31330575    -0.67610
O188        O  0.82515317  0.63107170  0.24344908    -0.58870
O189        O  0.87876002  0.57745465  0.27957459    -0.71380
O190        O  0.87699035  0.68660414  0.27819386    -0.70160
Cu191      Cu  0.89500331  0.63170616  0.13850434     1.04560
Cu192      Cu  0.87730820  0.63200893  0.28331833     1.04330
C193        C  0.88510212  0.70370730  0.21043118     0.96150
C194        C  0.88741740  0.56003474  0.21260477     0.95290
C195        C  0.81714209  0.63066646  0.16473250     0.87430
C196        C  0.95530338  0.63312234  0.25602553     0.93700
O197        O  0.63246134  0.94172384  0.97758050    -0.70050
O198        O  0.63425851  0.83195287  0.30936815    -0.71030
O199        O  0.58092547  0.88586853  0.01091428    -0.59650
O200        O  0.68586062  0.88777292  0.27494105    -0.68060
O201        O  0.70265731  0.88743365  0.07685450    -0.67610
O202        O  0.59707118  0.88553621  0.14658696    -0.58870
O203        O  0.65081255  0.83189309  0.11146566    -0.71380
O204        O  0.64904758  0.94104144  0.11298785    -0.70160
Cu205      Cu  0.63282488  0.88683447  0.30516137     1.04560
Cu206      Cu  0.65049636  0.88648615  0.11666226     1.04330
C207        C  0.64040299  0.95848238  0.04602912     0.96150
C208        C  0.64271151  0.81481165  0.04367157     0.95290
C209        C  0.57250683  0.88538268  0.08927829     0.87430
C210        C  0.71068075  0.88786222  0.33148154     0.93700
O211        O  0.89526849  0.94175197  0.27803214    -0.70050
O212        O  0.89349549  0.83197851  0.27974942    -0.71030
O213        O  0.94681829  0.88589952  0.24481836    -0.59650
O214        O  0.84187596  0.88779523  0.31406042    -0.68060
O215        O  0.82509351  0.88742329  0.17880435    -0.67610
O216        O  0.93068805  0.88553420  0.10913611    -0.58870
O217        O  0.87695576  0.83188833  0.14430659    -0.71380
O218        O  0.87869726  0.94103629  0.14261633    -0.70160
Cu219      Cu  0.89491481  0.88686294  0.28387241     1.04560
Cu220      Cu  0.87725930  0.88647970  0.13902743     1.04330
C221        C  0.88733258  0.95849402  0.20955088     0.96150
C222        C  0.88505846  0.81482163  0.21212630     0.95290
C223        C  0.95524578  0.88539548  0.16646056     0.87430
C224        C  0.81706162  0.88786657  0.25750613     0.93700
C225        C  0.77956287  0.88829367  0.28318156    -0.10380
C226        C  0.74817703  0.88829249  0.30578676    -0.11940
C227        C  0.88485773  0.74282858  0.21072338    -0.10380
C228        C  0.88484300  0.77570011  0.21191927    -0.11940
C229        C  0.64295456  0.77569069  0.04391568    -0.10380
C230        C  0.64296941  0.74281915  0.04508782    -0.11940
C231        C  0.74826506  0.63023779  0.11636686    -0.10380
C232        C  0.77964940  0.63023932  0.13899452    -0.11940
C233        C  0.88920835  0.03007921  0.19555628    -0.10380
C234        C  0.88840699  0.99756569  0.20655449    -0.11940
C235        C  0.88929458  0.48844333  0.22640324    -0.10380
C236        C  0.88849638  0.52096196  0.21548869    -0.11940
C237        C  0.89293861  0.27493145  0.03281850    -0.10380
C238        C  0.89292984  0.24354663  0.05544340    -0.11940
C239        C  0.63932771  0.99755415  0.04895733    -0.10380
C240        C  0.63853124  0.03007055  0.05989172    -0.11940
C241        C  0.78031960  0.13831441  0.12696500    -0.10380
C242        C  0.74744794  0.13831583  0.12816075    -0.11940
C243        C  0.63942963  0.52095525  0.03974523    -0.10380
C244        C  0.63862732  0.48844150  0.02876717    -0.11940
C245        C  0.74750055  0.38020419  0.29349608    -0.10380
C246        C  0.78037213  0.38020225  0.29467213    -0.11940
C247        C  0.63488192  0.27495997  0.22220693    -0.10380
C248        C  0.63487314  0.24357423  0.19960327    -0.11940
C249        C  0.00218619  0.13471170  0.13215188    -0.10380
C250        C  0.03470145  0.13391646  0.14312346    -0.11940
C251        C  0.49306392  0.13391053  0.11227301    -0.10380
C252        C  0.52558075  0.13471527  0.12321406    -0.11940
C253        C  0.24818359  0.13023019  0.28310884    -0.10380
C254        C  0.27956827  0.13022871  0.30573333    -0.11940
C255        C  0.03475522  0.38458353  0.27884454    -0.10380
C256        C  0.00223757  0.38378047  0.28976140    -0.11940
C257        C  0.14296197  0.24282276  0.21153123    -0.10380
C258        C  0.14297581  0.27569427  0.21036081    -0.11940
C259        C  0.52563742  0.38379616  0.29892371    -0.10380
C260        C  0.49312633  0.38458976  0.97659159    -0.11940
C261        C  0.38485002  0.24281241  0.04380137    -0.10380
C262        C  0.38486478  0.27568397  0.04499929    -0.11940
C263        C  0.24827113  0.38828600  0.13921625    -0.10380
C264        C  0.27965676  0.38828322  0.11660862    -0.11940
C265        C  0.13853542  0.98844139  0.19569724    -0.10380
C266        C  0.13933425  0.02095901  0.20661096    -0.11940
C267        C  0.99306324  0.88458976  0.14343387    -0.10380
C268        C  0.02557918  0.88378353  0.13249282    -0.11940
C269        C  0.13862081  0.53006900  0.22684217    -0.10380
C270        C  0.13942594  0.49755677  0.21584227    -0.11940
C271        C  0.02562928  0.63470195  0.29011706    -0.10380
C272        C  0.99311534  0.63391074  0.27912166    -0.11940
C273        C  0.13487566  0.74353722  0.03350821    -0.10380
C274        C  0.13486612  0.77492317  0.05610978    -0.11940
C275        C  0.38920350  0.98843087  0.05999866    -0.10380
C276        C  0.38840348  0.02094569  0.04902006    -0.11940
C277        C  0.50217762  0.88378760  0.12330468    -0.10380
C278        C  0.53469196  0.88458476  0.11233194    -0.11940
C279        C  0.28031437  0.88019544  0.12860292    -0.10380
C280        C  0.24744284  0.88019411  0.12742947    -0.11940
C281        C  0.38850574  0.49755050  0.04010846    -0.10380
C282        C  0.38930030  0.53006808  0.02917494    -0.11940
C283        C  0.50223639  0.63472003  0.29902773    -0.10380
C284        C  0.53475524  0.63391677  0.97660969    -0.11940
C285        C  0.24749592  0.63830561  0.29545050    -0.10380
C286        C  0.28036763  0.63830687  0.29425207    -0.11940
C287        C  0.39292186  0.77495244  0.20002412    -0.10380
C288        C  0.39293075  0.74356789  0.22265132    -0.11940
O289        O  0.44573963  0.64443528  0.69644996    -0.70050
O290        O  0.33658876  0.64617964  0.69506427    -0.71030
O291        O  0.39025259  0.59244506  0.39677800    -0.59650
O292        O  0.39211002  0.69804007  0.66038941    -0.68060
O293        O  0.39241483  0.68125485  0.52514033    -0.67610
O294        O  0.39054981  0.57631368  0.59443178    -0.58870
O295        O  0.33661369  0.62963812  0.55962831    -0.71380
O296        O  0.44638660  0.62786111  0.56103991    -0.70160
Cu297      Cu  0.39118427  0.64587422  0.70019194     1.04560
Cu298      Cu  0.39149519  0.62821641  0.55535387     1.04330
C299        C  0.46316338  0.63579764  0.62947085     0.96150
C300        C  0.31948929  0.63807917  0.62729106     0.95290
C301        C  0.39008722  0.56788649  0.67279400     0.87430
C302        C  0.39251463  0.70607049  0.58168259     0.93700
O303        O  0.33650233  0.87231571  0.39433871    -0.70050
O304        O  0.44564998  0.87406762  0.39268549    -0.71030
O305        O  0.39204249  0.82046602  0.42892409    -0.59650
O306        O  0.39014472  0.92604887  0.35911550    -0.68060
O307        O  0.39050698  0.94220372  0.49477599    -0.67610
O308        O  0.39241164  0.83727266  0.56415791    -0.58870
O309        O  0.44636256  0.89066395  0.52807949    -0.71380
O310        O  0.33659111  0.88888022  0.52975965    -0.70160
Cu311      Cu  0.39109386  0.87262473  0.38907810     1.04560
Cu312      Cu  0.39147431  0.89030665  0.53389916     1.04330
C313        C  0.31943517  0.88042622  0.46214409     0.96150
C314        C  0.46310597  0.88271559  0.45961660     0.95290
C315        C  0.39248677  0.81244808  0.50763656     0.87430
C316        C  0.39000512  0.95061730  0.41640674     0.93700
O317        O  0.19130460  0.64618780  0.56118500    -0.70050
O318        O  0.08215685  0.64442524  0.55951017    -0.71030
O319        O  0.13575920  0.69802936  0.59575039    -0.59650
O320        O  0.13766839  0.59245232  0.52596039    -0.68060
O321        O  0.13730806  0.57628970  0.66162270    -0.67610
O322        O  0.13539235  0.68121675  0.39765495    -0.58870
O323        O  0.08144572  0.62782227  0.36157306    -0.71380
O324        O  0.19122007  0.62961656  0.36327485    -0.70160
Cu325      Cu  0.13671310  0.64587357  0.55591444     1.04560
Cu326      Cu  0.13633535  0.62818437  0.36740424     1.04330
C327        C  0.20837420  0.63807507  0.62899356     0.96150
C328        C  0.06470124  0.63577397  0.62643855     0.95290
C329        C  0.13531405  0.70604353  0.34112831     0.87430
C330        C  0.13781179  0.56788086  0.58325435     0.93700
O331        O  0.19124236  0.87233175  0.52832313    -0.70210
O332        O  0.08209338  0.87407664  0.52985614    -0.71030
O333        O  0.13571175  0.82046658  0.49378871    -0.59650
O334        O  0.13758976  0.92607074  0.56337600    -0.68060
O335        O  0.13725350  0.94218265  0.42768012    -0.67610
O336        O  0.13536775  0.83723185  0.35851918    -0.58870
O337        O  0.08140730  0.89063054  0.39442623    -0.71380
O338        O  0.19117777  0.88885314  0.39286661    -0.70160
Cu339      Cu  0.13664918  0.87263783  0.53352594     1.04560
Cu340      Cu  0.13629606  0.89027434  0.38866582     1.04330
C341        C  0.20832163  0.88042205  0.46051713     0.96150
C342        C  0.06465061  0.88270470  0.46288903     0.95290
C343        C  0.13528522  0.81242473  0.41509228     0.87430
C344        C  0.13773945  0.95062073  0.50603184     0.93700
O345        O  0.39537595  0.44170546  0.44477715    -0.70050
O346        O  0.39356952  0.33193301  0.44624761    -0.71030
O347        O  0.44690336  0.38585388  0.41136965    -0.59650
O348        O  0.34197566  0.38775012  0.48074716    -0.68060
O349        O  0.32516353  0.38743864  0.34551049    -0.67610
O350        O  0.43074122  0.38554984  0.60903411    -0.58870
O351        O  0.37699939  0.33190198  0.31082483    -0.71380
O352        O  0.37877330  0.44105087  0.30938039    -0.70160
Cu353      Cu  0.39500806  0.38681463  0.45049130     1.04560
Cu354      Cu  0.37731954  0.38649634  0.30566834     1.04330
C355        C  0.38742715  0.45847821  0.37634485     0.96150
C356        C  0.38510775  0.31480571  0.37860081     0.95290
C357        C  0.45531240  0.38538396  0.33299969     0.87430
C358        C  0.31714891  0.38785271  0.42422248     0.93700
O359        O  0.13256944  0.44175597  0.47767091    -0.70050
O360        O  0.13433115  0.33198440  0.47589783    -0.71030
O361        O  0.08101091  0.38590301  0.51082967    -0.59650
O362        O  0.18595950  0.38780148  0.44164197    -0.68060
O363        O  0.20273009  0.38740563  0.57690589    -0.67610
O364        O  0.09712781  0.38551416  0.64652038    -0.58870
O365        O  0.15085806  0.33186958  0.61134926    -0.71380
O366        O  0.14912817  0.44101703  0.61309479    -0.70160
Cu367      Cu  0.13291796  0.38686870  0.47180267     1.04560
Cu368      Cu  0.15056000  0.38645992  0.61665690     1.04330
C369        C  0.14049983  0.45848608  0.54616444     0.96150
C370        C  0.14276083  0.31481543  0.54351580     0.95290
C371        C  0.07257561  0.38538762  0.58918268     0.87430
C372        C  0.21076895  0.38786050  0.49820793     0.93700
O373        O  0.39350546  0.18654144  0.64260370    -0.70050
O374        O  0.39527195  0.07676870  0.31091414    -0.71030
O375        O  0.34188415  0.13073021  0.60822721    -0.59650
O376        O  0.44682293  0.13261582  0.34419370    -0.68060
O377        O  0.43068609  0.13296460  0.47986735    -0.67610
O378        O  0.32509336  0.13108660  0.41013871    -0.58870
O379        O  0.37869277  0.07746779  0.44632066    -0.71380
O380        O  0.37695716  0.18661652  0.44470370    -0.70160
Cu381      Cu  0.39492179  0.13165759  0.63844648     1.04560
Cu382      Cu  0.37725773  0.13202414  0.44994586     1.04330
C383        C  0.38506439  0.20369123  0.37689953     0.96150
C384        C  0.38733112  0.06001822  0.37937939     0.95290
C385        C  0.31706618  0.13065277  0.66476633     0.87430
C386        C  0.45524686  0.13310971  0.42255613     0.93700
O387        O  0.13246669  0.07679632  0.61128473    -0.70050
O388        O  0.13426381  0.18656625  0.61277446    -0.71030
O389        O  0.08093229  0.13264583  0.57789575    -0.59650
O390        O  0.18586550  0.13075182  0.64725502    -0.68060
O391        O  0.20266815  0.13107892  0.51201651    -0.67610
O392        O  0.09708312  0.13296521  0.44223073    -0.58870
O393        O  0.15082392  0.18661447  0.47734924    -0.71380
O394        O  0.14905937  0.07746536  0.47588568    -0.70160
Cu395      Cu  0.13283054  0.13168543  0.61700808     1.04560
Cu396      Cu  0.15050817  0.13202053  0.47218204     1.04330
C397        C  0.14041118  0.06003105  0.54284944     0.96150
C398        C  0.14271944  0.20370191  0.54513048     0.95290
C399        C  0.07251638  0.13312324  0.49952766     0.87430
C400        C  0.21068844  0.13065802  0.59072776     0.93700
O401        O  0.58217228  0.37408044  0.69617291    -0.70050
O402        O  0.69131913  0.37232715  0.69445648    -0.71030
O403        O  0.63768401  0.42606131  0.39634864    -0.59650
O404        O  0.63577314  0.32047731  0.65993725    -0.68060
O405        O  0.63539028  0.33727799  0.52469238    -0.67610
O406        O  0.63730761  0.44221166  0.59400664    -0.58870
O407        O  0.69121746  0.38888594  0.55902483    -0.71380
O408        O  0.58144529  0.39067088  0.56076845    -0.70160
Cu409      Cu  0.63672854  0.37263704  0.69974881     1.04560
Cu410      Cu  0.63633335  0.39031299  0.55491641     1.04330
C411        C  0.56470913  0.38272524  0.62924652     0.96150
C412        C  0.70837987  0.38043461  0.62663669     0.95290
C413        C  0.63781884  0.45062773  0.67237063     0.87430
C414        C  0.63532030  0.31245603  0.58123046     0.93700
O415        O  0.58208672  0.14443196  0.39249073    -0.70050
O416        O  0.69123657  0.14618365  0.39396386    -0.71030
O417        O  0.63758006  0.09244502  0.35891076    -0.59650
O418        O  0.63570898  0.19804148  0.42855954    -0.68060
O419        O  0.63538472  0.18126243  0.56381983    -0.67610
O420        O  0.63726363  0.07631855  0.49459726    -0.58870
O421        O  0.69119278  0.12964803  0.52941075    -0.71380
O422        O  0.58142005  0.12786375  0.52791129    -0.70160
Cu423      Cu  0.63664230  0.14587460  0.38879218     1.04560
Cu424      Cu  0.63631057  0.12822290  0.53364176     1.04330
C425        C  0.56465331  0.13579597  0.45946135     0.96150
C426        C  0.70832653  0.13808686  0.46175532     0.95290
C427        C  0.63773835  0.06788886  0.41624038     0.87430
C428        C  0.63529280  0.20607535  0.50726051     0.93700
O429        O  0.94573152  0.37407476  0.55903616    -0.70050
O430        O  0.83658149  0.37233391  0.56048739    -0.71030
O431        O  0.89024298  0.42607004  0.52543514    -0.59650
O432        O  0.89210459  0.32046854  0.59510331    -0.68060
O433        O  0.89243134  0.33724203  0.39702148    -0.67610
O434        O  0.89056165  0.44218915  0.66111961    -0.58870
O435        O  0.83662928  0.38886362  0.36259572    -0.71380
O436        O  0.94640001  0.39063662  0.36111333    -0.70160
Cu437      Cu  0.89117587  0.37263793  0.55532578     1.04560
Cu438      Cu  0.89151043  0.39028294  0.36683455     1.04330
C439        C  0.96316556  0.38270566  0.62601045     0.96150
C440        C  0.81949364  0.38042911  0.62827487     0.95290
C441        C  0.89008680  0.45062325  0.58276172     0.87430
C442        C  0.89252044  0.31243131  0.34046745     0.93700
O443        O  0.94566716  0.14443918  0.52945801    -0.70050
O444        O  0.83651871  0.14619747  0.52785590    -0.71030
O445        O  0.89016076  0.09246405  0.56307490    -0.59650
O446        O  0.89205938  0.19804087  0.49322322    -0.68060
O447        O  0.89240977  0.18122469  0.35799575    -0.67610
O448        O  0.89050424  0.07629863  0.42742114    -0.58870
O449        O  0.83658762  0.12962287  0.39244186    -0.71380
O450        O  0.94636119  0.12783273  0.39407064    -0.70160
Cu451      Cu  0.89111119  0.14588553  0.53309008     1.04560
Cu452      Cu  0.89147129  0.12819286  0.38827651     1.04330
C453        C  0.96311420  0.13578553  0.46252318     0.96150
C454        C  0.81944133  0.13808257  0.46006228     0.95290
C455        C  0.89001136  0.06789122  0.50579417     0.87430
C456        C  0.89249441  0.20605323  0.41450765     0.93700
O457        O  0.63256489  0.57676399  0.44454540    -0.70050
O458        O  0.63432303  0.68653563  0.44625291    -0.71030
O459        O  0.58100634  0.63261009  0.41132503    -0.59650
O460        O  0.68595187  0.63072550  0.48057136    -0.68060
O461        O  0.70273025  0.63110739  0.34531723    -0.67610
O462        O  0.59712986  0.63298568  0.60897355    -0.58870
O463        O  0.65085787  0.68663714  0.31081113    -0.71380
O464        O  0.64913136  0.57748881  0.30913071    -0.70160
Cu465      Cu  0.63291148  0.63165188  0.45038040     1.04560
Cu466      Cu  0.65056157  0.63204583  0.30553632     1.04330
C467        C  0.64050013  0.56002667  0.37606697     0.96150
C468        C  0.64275594  0.70369801  0.37862998     0.95290
C469        C  0.57257459  0.63311671  0.33296745     0.87430
C470        C  0.71076478  0.63066096  0.42402020     0.93700
O471        O  0.89356603  0.68658678  0.47611347    -0.70050
O472        O  0.89536920  0.57681485  0.47752201    -0.71030
O473        O  0.84197123  0.63077404  0.44155671    -0.59650
O474        O  0.94689674  0.63266214  0.51098563    -0.68060
O475        O  0.93072947  0.63295156  0.64664005    -0.67610
O476        O  0.82515292  0.63107153  0.57678467    -0.58870
O477        O  0.87876017  0.57745485  0.61291050    -0.71380
O478        O  0.87698992  0.68660435  0.61152788    -0.70160
Cu479      Cu  0.89500288  0.63170600  0.47183916     1.04560
Cu480      Cu  0.87730806  0.63200915  0.61665327     1.04330
C481        C  0.88510149  0.70370734  0.54376485     0.96150
C482        C  0.88741753  0.56003477  0.54594092     0.95290
C483        C  0.81714168  0.63066601  0.49806819     0.87430
C484        C  0.95530321  0.63312285  0.58935960     0.93700
O485        O  0.63246088  0.94172338  0.31091250    -0.70050
O486        O  0.63425856  0.83195329  0.64270111    -0.71030
O487        O  0.58092515  0.88586824  0.34424870    -0.59650
O488        O  0.68586046  0.88777358  0.60827440    -0.68060
O489        O  0.70265702  0.88743403  0.41018833    -0.67610
O490        O  0.59707097  0.88553693  0.47992133    -0.58870
O491        O  0.65081239  0.83189360  0.44480189    -0.71380
O492        O  0.64904723  0.94104198  0.44631981    -0.70160
Cu493      Cu  0.63282479  0.88683490  0.63849526     1.04560
Cu494      Cu  0.65049611  0.88648671  0.44999636     1.04330
C495        C  0.64040255  0.95848242  0.37936045     0.96150
C496        C  0.64271132  0.81481168  0.37700848     0.95290
C497        C  0.57250658  0.88538297  0.42261278     0.87430
C498        C  0.71068070  0.88786274  0.66481463     0.93700
O499        O  0.89526859  0.94175200  0.61136485    -0.70050
O500        O  0.89349509  0.83197854  0.61308208    -0.71030
O501        O  0.94681814  0.88589932  0.57815100    -0.59650
O502        O  0.84187583  0.88779550  0.64739309    -0.68060
O503        O  0.82509337  0.88742365  0.51213702    -0.67610
O504        O  0.93068788  0.88553406  0.44246878    -0.58870
O505        O  0.87695533  0.83188842  0.47763929    -0.71380
O506        O  0.87869736  0.94103640  0.47594904    -0.70160
Cu507      Cu  0.89491467  0.88686297  0.61720507     1.04560
Cu508      Cu  0.87725914  0.88647981  0.47236012     1.04330
C509        C  0.88733275  0.95849408  0.54288360     0.96150
C510        C  0.88505796  0.81482169  0.54545900     0.95290
C511        C  0.95524561  0.88539525  0.49979320     0.87430
C512        C  0.81706149  0.88786696  0.59083879     0.93700
C513        C  0.77956275  0.88829422  0.61651421    -0.10380
C514        C  0.74817692  0.88829308  0.63911951    -0.11940
C515        C  0.88485701  0.74282863  0.54405646    -0.10380
C516        C  0.88484234  0.77570016  0.54525205    -0.11940
C517        C  0.64295444  0.77569071  0.37725394    -0.10380
C518        C  0.64296928  0.74281917  0.37842624    -0.11940
C519        C  0.74826456  0.63023716  0.44970293    -0.10380
C520        C  0.77964891  0.63023870  0.47233057    -0.11940
C521        C  0.88920876  0.03007927  0.52888887    -0.10380
C522        C  0.88840733  0.99756576  0.53988723    -0.11940
C523        C  0.88929515  0.48844338  0.55974040    -0.10380
C524        C  0.88849678  0.52096199  0.54882551    -0.11940
C525        C  0.89293745  0.27493096  0.36614649    -0.10380
C526        C  0.89292916  0.24354616  0.38877154    -0.11940
C527        C  0.63932720  0.99755420  0.38228720    -0.10380
C528        C  0.63853075  0.03007065  0.39322078    -0.11940
C529        C  0.78031976  0.13831371  0.46029216    -0.10380
C530        C  0.74744809  0.13831529  0.46148762    -0.11940
C531        C  0.63942838  0.52095534  0.37307723    -0.10380
C532        C  0.63862573  0.48844165  0.36209840    -0.11940
C533        C  0.74750099  0.38020437  0.62682789    -0.10380
C534        C  0.78037255  0.38020238  0.62800523    -0.11940
C535        C  0.63488278  0.27496045  0.55553313    -0.10380
C536        C  0.63487394  0.24357470  0.53292951    -0.11940
C537        C  0.00218640  0.13471213  0.46548580    -0.10380
C538        C  0.03470164  0.13391687  0.47645795    -0.11940
C539        C  0.49306397  0.13391141  0.44560110    -0.10380
C540        C  0.52558082  0.13471616  0.45654198    -0.11940
C541        C  0.24818388  0.13022990  0.61644316    -0.10380
C542        C  0.27956858  0.13022839  0.63906754    -0.11940
C543        C  0.03475549  0.38458374  0.61218757    -0.10380
C544        C  0.00223786  0.38378071  0.62310460    -0.11940
C545        C  0.14296195  0.24282281  0.54486905    -0.10380
C546        C  0.14297560  0.27569433  0.54369906    -0.11940
C547        C  0.52563796  0.38379645  0.63224689    -0.10380
C548        C  0.49312443  0.38459042  0.30991960    -0.11940
C549        C  0.38484923  0.24281279  0.37712864    -0.10380
C550        C  0.38486362  0.27568433  0.37832662    -0.11940
C551        C  0.24826986  0.38828603  0.47254803    -0.10380
C552        C  0.27965534  0.38828327  0.44993947    -0.11940
C553        C  0.13853530  0.98844144  0.52902845    -0.10380
C554        C  0.13933428  0.02095905  0.53994240    -0.11940
C555        C  0.99306305  0.88458946  0.47676643    -0.10380
C556        C  0.02557899  0.88378324  0.46582527    -0.11940
C557        C  0.13862041  0.53006915  0.56017786    -0.10380
C558        C  0.13942546  0.49755688  0.54917852    -0.11940
C559        C  0.02562918  0.63470266  0.62345075    -0.10380
C560        C  0.99311522  0.63391142  0.61245541    -0.11940
C561        C  0.13487561  0.74353703  0.36684100    -0.10380
C562        C  0.13486607  0.77492300  0.38944256    -0.11940
C563        C  0.38920354  0.98843130  0.39332928    -0.10380
C564        C  0.38840360  0.02094608  0.38235016    -0.11940
C565        C  0.50217738  0.88378823  0.45663929    -0.10380
C566        C  0.53469173  0.88458525  0.44566661    -0.11940
C567        C  0.28031415  0.88019598  0.46193485    -0.10380
C568        C  0.24744262  0.88019446  0.46076120    -0.11940
C569        C  0.38850428  0.49755084  0.37343955    -0.10380
C570        C  0.38929916  0.53006841  0.36250622    -0.11940
C571        C  0.50223649  0.63472072  0.63235898    -0.10380
C572        C  0.53475485  0.63391731  0.30994444    -0.11940
C573        C  0.24749591  0.63830580  0.62878387    -0.10380
C574        C  0.28036763  0.63830707  0.62758519    -0.11940
C575        C  0.39292150  0.77495344  0.53335995    -0.10380
C576        C  0.39293043  0.74356886  0.55598700    -0.11940
O577        O  0.44574022  0.64443478  0.02978523    -0.70050
O578        O  0.33658936  0.64617946  0.02840193    -0.71030
O579        O  0.39025296  0.59244481  0.73010854    -0.59650
O580        O  0.39211063  0.69803950  0.99372411    -0.68060
O581        O  0.39241484  0.68125348  0.85847556    -0.67610
O582        O  0.39054985  0.57631273  0.92777059    -0.58870
O583        O  0.33661373  0.62963709  0.89296654    -0.71380
O584        O  0.44638660  0.62785977  0.89437571    -0.70160
Cu585      Cu  0.39118490  0.64587392  0.03352839     1.04560
Cu586      Cu  0.39149518  0.62821521  0.88869090     1.04330
C587        C  0.46316366  0.63579665  0.96280605     0.96150
C588        C  0.31948961  0.63807861  0.96062935     0.95290
C589        C  0.39008761  0.56788604  0.00613311     0.87430
C590        C  0.39251494  0.70606946  0.91501704     0.93700
O591        O  0.33650249  0.87231537  0.72767549    -0.70050
O592        O  0.44565013  0.87406727  0.72602120    -0.71030
O593        O  0.39204270  0.82046543  0.76225868    -0.59650
O594        O  0.39014479  0.92604873  0.69245339    -0.68060
O595        O  0.39050731  0.94220283  0.82811435    -0.67610
O596        O  0.39241212  0.83727134  0.89749296    -0.58870
O597        O  0.44636296  0.89066286  0.86141568    -0.71380
O598        O  0.33659154  0.88887913  0.86309692    -0.70160
Cu599      Cu  0.39109400  0.87262439  0.72241434     1.04560
Cu600      Cu  0.39147473  0.89030551  0.86723589     1.04330
C601        C  0.31943546  0.88042555  0.79548127     0.96150
C602        C  0.46310624  0.88271490  0.79295238     0.95290
C603        C  0.39248712  0.81244705  0.84097091     0.87430
C604        C  0.39000527  0.95061685  0.74974537     0.93700
O605        O  0.19130543  0.64618768  0.89452169    -0.70050
O606        O  0.08215768  0.64442501  0.89284250    -0.71030
O607        O  0.13575972  0.69802910  0.92908535    -0.59650
O608        O  0.13766961  0.59245223  0.85929431    -0.68060
O609        O  0.13730827  0.57628933  0.99495643    -0.67610
O610        O  0.13539244  0.68121750  0.73098781    -0.58870
O611        O  0.08144563  0.62782307  0.69490687    -0.71380
O612        O  0.19122004  0.62961708  0.69660853    -0.70160
Cu613      Cu  0.13671398  0.64587341  0.88924892     1.04560
Cu614      Cu  0.13633529  0.62818504  0.70073804     1.04330
C615        C  0.20837454  0.63807480  0.96233082     0.96150
C616        C  0.06470160  0.63577365  0.95977016     0.95290
C617        C  0.13531421  0.70604409  0.67446074     0.87430
C618        C  0.13781268  0.56788065  0.91658801     0.93700
O619        O  0.19124235  0.87233155  0.86165894    -0.70210
O620        O  0.08209339  0.87407672  0.86318937    -0.71030
O621        O  0.13571177  0.82046672  0.82712184    -0.59650
O622        O  0.13758970  0.92607054  0.89671187    -0.68060
O623        O  0.13725408  0.94218306  0.76101638    -0.67610
O624        O  0.13536841  0.83723260  0.69185271    -0.58870
O625        O  0.08140792  0.89063125  0.72775985    -0.71380
O626        O  0.19117840  0.88885358  0.72620282    -0.70160
Cu627      Cu  0.13664915  0.87263776  0.86686045     1.04560
Cu628      Cu  0.13629672  0.89027495  0.72200073     1.04330
C629        C  0.20832193  0.88042208  0.79385352     0.96150
C630        C  0.06465092  0.88270511  0.79622207     0.95290
C631        C  0.13528556  0.81242523  0.74842520     0.87430
C632        C  0.13773965  0.95062078  0.83936831     0.93700
O633        O  0.39537767  0.44170547  0.77810495    -0.70050
O634        O  0.39357156  0.33193296  0.77957661    -0.71030
O635        O  0.44690489  0.38585396  0.74469525    -0.59650
O636        O  0.34197793  0.38775001  0.81407844    -0.68060
O637        O  0.32516455  0.38743824  0.67884255    -0.67610
O638        O  0.43074292  0.38554929  0.94237874    -0.58870
O639        O  0.37700017  0.33190165  0.64415464    -0.71380
O640        O  0.37877375  0.44105060  0.64270902    -0.70160
Cu641      Cu  0.39501002  0.38681462  0.78381973     1.04560
Cu642      Cu  0.37732013  0.38649602  0.63899756     1.04330
C643        C  0.38742816  0.45847809  0.70967290     0.96150
C644        C  0.38510916  0.31480551  0.71193041     0.95290
C645        C  0.45531319  0.38538397  0.66632484     0.87430
C646        C  0.31715066  0.38785243  0.75755494     0.93700
O647        O  0.13257158  0.44175589  0.81100355    -0.70050
O648        O  0.13433302  0.33198433  0.80923045    -0.71030
O649        O  0.08101283  0.38590306  0.84416124    -0.59650
O650        O  0.18596166  0.38780128  0.77497561    -0.68060
O651        O  0.20273183  0.38740538  0.91023979    -0.67610
O652        O  0.09712928  0.38551415  0.97985219    -0.58870
O653        O  0.15085952  0.33186947  0.94468214    -0.71380
O654        O  0.14912988  0.44101690  0.94642769    -0.70160
Cu655      Cu  0.13292002  0.38686862  0.80513529     1.04560
Cu656      Cu  0.15056159  0.38645980  0.94998976     1.04330
C657        C  0.14050172  0.45848597  0.87949725     0.96150
C658        C  0.14276238  0.31481534  0.87684861     0.95290
C659        C  0.07257727  0.38538767  0.92251408     0.87430
C660        C  0.21077093  0.38786025  0.83154197     0.93700
O661        O  0.39350515  0.18654200  0.97594246    -0.70050
O662        O  0.39527210  0.07676787  0.64425179    -0.71030
O663        O  0.34188390  0.13073103  0.94156330    -0.59650
O664        O  0.44682325  0.13261501  0.67752983    -0.68060
O665        O  0.43068606  0.13296486  0.81320326    -0.67610
O666        O  0.32509352  0.13108682  0.74347327    -0.58870
O667        O  0.37869259  0.07746799  0.77965807    -0.71380
O668        O  0.37695753  0.18661678  0.77803669    -0.70160
Cu669      Cu  0.39492155  0.13165821  0.97178227     1.04560
Cu670      Cu  0.37725778  0.13202442  0.78328108     1.04330
C671        C  0.38506504  0.20369096  0.71023195     0.96150
C672        C  0.38733107  0.06001790  0.71271760     0.95290
C673        C  0.31706599  0.13065295  0.99810256     0.87430
C674        C  0.45524697  0.13310946  0.75589238     0.93700
O675        O  0.13246645  0.07679654  0.94462109    -0.70050
O676        O  0.13426395  0.18656648  0.94610861    -0.71030
O677        O  0.08093226  0.13264611  0.91123066    -0.59650
O678        O  0.18586534  0.13075203  0.98059061    -0.68060
O679        O  0.20266819  0.13107857  0.84535224    -0.67610
O680        O  0.09708323  0.13296495  0.77556574    -0.58870
O681        O  0.15082424  0.18661413  0.81068352    -0.71380
O682        O  0.14905930  0.07746506  0.80922214    -0.70160
Cu683      Cu  0.13283045  0.13168568  0.95034332     1.04560
Cu684      Cu  0.15050827  0.13202019  0.80551742     1.04330
C685        C  0.14041102  0.06003101  0.87618620     0.96150
C686        C  0.14271981  0.20370185  0.87846441     0.95290
C687        C  0.07251643  0.13312327  0.83286253     0.87430
C688        C  0.21068836  0.13065797  0.92406357     0.93700
O689        O  0.58217447  0.37407987  0.02951848    -0.70050
O690        O  0.69132137  0.37232700  0.02779521    -0.71030
O691        O  0.63768380  0.42606143  0.72967691    -0.59650
O692        O  0.63577516  0.32047685  0.99328018    -0.68060
O693        O  0.63539069  0.33727712  0.85803500    -0.67610
O694        O  0.63730840  0.44221099  0.92734750    -0.58870
O695        O  0.69121815  0.38888537  0.89236330    -0.71380
O696        O  0.58144589  0.39066987  0.89411378    -0.70160
Cu697      Cu  0.63673083  0.37263670  0.03309088     1.04560
Cu698      Cu  0.63633393  0.39031219  0.88825821     1.04330
C699        C  0.56471052  0.38272441  0.96259305     0.96150
C700        C  0.70838135  0.38043433  0.95997430     0.95290
C701        C  0.63782044  0.45062730  0.00571131     0.87430
C702        C  0.63532141  0.31245533  0.91457354     0.93700
O703        O  0.58208698  0.14443230  0.72582963    -0.70050
O704        O  0.69123684  0.14618367  0.72730500    -0.71030
O705        O  0.63758029  0.09244542  0.69224882    -0.59650
O706        O  0.63570934  0.19804142  0.76190140    -0.68060
O707        O  0.63538453  0.18126150  0.89716108    -0.67610
O708        O  0.63726332  0.07631810  0.82793482    -0.58870
O709        O  0.69119253  0.12964717  0.86275133    -0.71380
O710        O  0.58141979  0.12786321  0.86124961    -0.70160
Cu711      Cu  0.63664260  0.14587482  0.72213217     1.04560
Cu712      Cu  0.63631029  0.12822218  0.86698117     1.04330
C713        C  0.56465332  0.13579590  0.79279961     0.96150
C714        C  0.70832654  0.13808644  0.79509655     0.95290
C715        C  0.63773829  0.06788891  0.74957766     0.87430
C716        C  0.63529296  0.20607478  0.84060265     0.93700
O717        O  0.94573291  0.37407481  0.89236771    -0.70050
O718        O  0.83658283  0.37233399  0.89382064    -0.71030
O719        O  0.89024424  0.42607005  0.85876722    -0.59650
O720        O  0.89210601  0.32046867  0.92843592    -0.68060
O721        O  0.89243083  0.33724233  0.73036008    -0.67610
O722        O  0.89056332  0.44218938  0.99445152    -0.58870
O723        O  0.83662907  0.38886383  0.69593128    -0.71380
O724        O  0.94639974  0.39063693  0.69445405    -0.70160
Cu725      Cu  0.89117722  0.37263800  0.88865818     1.04560
Cu726      Cu  0.89151014  0.39028320  0.70017265     1.04330
C727        C  0.96316714  0.38270581  0.95934164     0.96150
C728        C  0.81949518  0.38042926  0.96160836     0.95290
C729        C  0.89008819  0.45062334  0.91609356     0.87430
C730        C  0.89252043  0.31243152  0.67380630     0.93700
O731        O  0.94566755  0.14443920  0.86279469    -0.70050
O732        O  0.83651910  0.14619736  0.86119600    -0.71030
O733        O  0.89016141  0.09246395  0.89641274    -0.59650
O734        O  0.89205953  0.19804090  0.82656201    -0.68060
O735        O  0.89240916  0.18122497  0.69133434    -0.67610
O736        O  0.89050413  0.07629878  0.76075882    -0.58870
O737        O  0.83658726  0.12962302  0.72578179    -0.71380
O738        O  0.94636085  0.12783299  0.72740714    -0.70160
Cu739      Cu  0.89111161  0.14588548  0.86642844     1.04560
Cu740      Cu  0.89147091  0.12819308  0.72161468     1.04330
C741        C  0.96311423  0.13578568  0.79585928     0.96150
C742        C  0.81944134  0.13808252  0.79340286     0.95290
C743        C  0.89001170  0.06789122  0.83913179     0.87430
C744        C  0.89249414  0.20605341  0.74784650     0.93700
O745        O  0.63256516  0.57676407  0.77787502    -0.70050
O746        O  0.63432350  0.68653572  0.77958380    -0.71030
O747        O  0.58100663  0.63261036  0.74465579    -0.59650
O748        O  0.68595232  0.63072541  0.81390116    -0.68060
O749        O  0.70273047  0.63110755  0.67864688    -0.67610
O750        O  0.59713013  0.63298439  0.94230774    -0.58870
O751        O  0.65085814  0.68663750  0.64414190    -0.71380
O752        O  0.64913138  0.57748916  0.64246017    -0.70160
Cu753      Cu  0.63291185  0.63165195  0.78371067     1.04560
Cu754      Cu  0.65056170  0.63204620  0.63886646     1.04330
C755        C  0.64050024  0.56002688  0.70939631     0.96150
C756        C  0.64275633  0.70369823  0.71196100     0.95290
C757        C  0.57257475  0.63311720  0.66629828     0.87430
C758        C  0.71076513  0.63066093  0.75734977     0.93700
O759        O  0.89356644  0.68658658  0.80944244    -0.70050
O760        O  0.89536977  0.57681468  0.81085221    -0.71030
O761        O  0.84197170  0.63077371  0.77488615    -0.59650
O762        O  0.94689718  0.63266206  0.84431538    -0.68060
O763        O  0.93072983  0.63295169  0.97996976    -0.67610
O764        O  0.82515330  0.63107147  0.91011402    -0.58870
O765        O  0.87876062  0.57745491  0.94624061    -0.71380
O766        O  0.87699026  0.68660438  0.94485682    -0.70160
Cu767      Cu  0.89500335  0.63170580  0.80516875     1.04560
Cu768      Cu  0.87730843  0.63200921  0.94998280     1.04330
C769        C  0.88510185  0.70370726  0.87709362     0.96150
C770        C  0.88741813  0.56003473  0.87927128     0.95290
C771        C  0.81714210  0.63066580  0.83139751     0.87430
C772        C  0.95530362  0.63312287  0.92268938     0.93700
O773        O  0.63246067  0.94172379  0.64424727    -0.70050
O774        O  0.63425877  0.83195332  0.97603186    -0.71030
O775        O  0.58092514  0.88586841  0.67758316    -0.59650
O776        O  0.68586100  0.88777354  0.94160718    -0.68060
O777        O  0.70265713  0.88743431  0.74352149    -0.67610
O778        O  0.59707126  0.88553668  0.81325559    -0.58870
O779        O  0.65081275  0.83189363  0.77813464    -0.71380
O780        O  0.64904729  0.94104201  0.77965440    -0.70160
Cu781      Cu  0.63282524  0.88683497  0.97182722     1.04560
Cu782      Cu  0.65049633  0.88648673  0.78333004     1.04330
C783        C  0.64040245  0.95848264  0.71269540     0.96150
C784        C  0.64271158  0.81481191  0.71034104     0.95290
C785        C  0.57250674  0.88538283  0.75594733     0.87430
C786        C  0.71068109  0.88786236  0.99814776     0.93700
O787        O  0.89526911  0.94175146  0.94469959    -0.70050
O788        O  0.89349553  0.83197800  0.94641285    -0.71030
O789        O  0.94681855  0.88589897  0.91148333    -0.59650
O790        O  0.84187635  0.88779475  0.98072631    -0.68060
O791        O  0.82509371  0.88742381  0.84547034    -0.67610
O792        O  0.93068813  0.88553464  0.77580120    -0.58870
O793        O  0.87695560  0.83188878  0.81097016    -0.71380
O794        O  0.87869770  0.94103676  0.80928387    -0.70160
Cu795      Cu  0.89491515  0.88686239  0.95053784     1.04560
Cu796      Cu  0.87725943  0.88648021  0.80569298     1.04330
C797        C  0.88733320  0.95849400  0.87621898     0.96150
C798        C  0.88505832  0.81482159  0.87878921     0.95290
C799        C  0.95524593  0.88539545  0.83312546     0.87430
C800        C  0.81706194  0.88786662  0.92417219     0.93700
C801        C  0.77956322  0.88829380  0.94984787    -0.10380
C802        C  0.74817738  0.88829265  0.97245312    -0.11940
C803        C  0.88485736  0.74282855  0.87738492    -0.10380
C804        C  0.88484267  0.77570007  0.87858093    -0.11940
C805        C  0.64295480  0.77569094  0.71058583    -0.10380
C806        C  0.64296969  0.74281940  0.71175768    -0.11940
C807        C  0.74826498  0.63023701  0.78303216    -0.10380
C808        C  0.77964934  0.63023848  0.80565973    -0.11940
C809        C  0.88920923  0.03007924  0.86222616    -0.10380
C810        C  0.88840782  0.99756569  0.87322390    -0.11940
C811        C  0.88929629  0.48844341  0.89307184    -0.10380
C812        C  0.88849764  0.52096197  0.88215643    -0.11940
C813        C  0.89293725  0.27493120  0.69948571    -0.10380
C814        C  0.89292887  0.24354640  0.72211075    -0.11940
C815        C  0.63932708  0.99755441  0.71562276    -0.10380
C816        C  0.63853065  0.03007083  0.72655694    -0.11940
C817        C  0.78031977  0.13831349  0.79363397    -0.10380
C818        C  0.74744810  0.13831491  0.79482963    -0.11940
C819        C  0.63942846  0.52095555  0.70640615    -0.10380
C820        C  0.63862585  0.48844186  0.69542715    -0.11940
C821        C  0.74750249  0.38020429  0.96016335    -0.10380
C822        C  0.78037407  0.38020243  0.96133951    -0.11940
C823        C  0.63488356  0.27495968  0.88887683    -0.10380
C824        C  0.63487440  0.24357398  0.86627294    -0.11940
C825        C  0.00218645  0.13471225  0.79882088    -0.10380
C826        C  0.03470171  0.13391695  0.80979267    -0.11940
C827        C  0.49306403  0.13391126  0.77893790    -0.10380
C828        C  0.52558083  0.13471607  0.78987942    -0.11940
C829        C  0.24818374  0.13022996  0.94977931    -0.10380
C830        C  0.27956840  0.13022855  0.97240390    -0.11940
C831        C  0.03475708  0.38458385  0.94551835    -0.10380
C832        C  0.00223944  0.38378084  0.95643527    -0.11940
C833        C  0.14296272  0.24282274  0.87820237    -0.10380
C834        C  0.14297678  0.27569425  0.87703203    -0.11940
C835        C  0.52563933  0.38379554  0.96559566    -0.10380
C836        C  0.49312500  0.38459058  0.64324295    -0.11940
C837        C  0.38485023  0.24281254  0.71045962    -0.10380
C838        C  0.38486489  0.27568411  0.71165676    -0.11940
C839        C  0.24827189  0.38828571  0.80588260    -0.10380
C840        C  0.27965732  0.38828294  0.78327361    -0.11940
C841        C  0.13853533  0.98844139  0.86236583    -0.10380
C842        C  0.13933416  0.02095900  0.87327988    -0.11940
C843        C  0.99306335  0.88458983  0.81009845    -0.10380
C844        C  0.02557929  0.88378369  0.79915749    -0.11940
C845        C  0.13862175  0.53006900  0.89351112    -0.10380
C846        C  0.13942716  0.49755676  0.88251151    -0.11940
C847        C  0.02562956  0.63470246  0.95678107    -0.10380
C848        C  0.99311562  0.63391137  0.94578527    -0.11940
C849        C  0.13487587  0.74353767  0.70017289    -0.10380
C850        C  0.13486639  0.77492361  0.72277461    -0.11940
C851        C  0.38920354  0.98843097  0.72666898    -0.10380
C852        C  0.38840351  0.02094576  0.71568981    -0.11940
C853        C  0.50217764  0.88378765  0.78997467    -0.10380
C854        C  0.53469196  0.88458486  0.77900161    -0.11940
C855        C  0.28031444  0.88019550  0.79527228    -0.10380
C856        C  0.24744292  0.88019424  0.79409840    -0.11940
C857        C  0.38850509  0.49755073  0.70676729    -0.10380
C858        C  0.38929976  0.53006836  0.69583449    -0.11940
C859        C  0.50223676  0.63471957  0.96569345    -0.10380
C860        C  0.53475496  0.63391794  0.64327555    -0.11940
C861        C  0.24749625  0.63830547  0.96212253    -0.10380
C862        C  0.28036797  0.63830665  0.96092418    -0.11940
C863        C  0.39292186  0.77495229  0.86669332    -0.10380
C864        C  0.39293077  0.74356770  0.88932039    -0.11940
loop_ 
_geom_bond_atom_site_label_1 
_geom_bond_atom_site_label_2 
_geom_bond_distance 
_geom_bond_site_symmetry_2 
_ccdc_geom_bond_type 
O1           Cu9   2.002       .  S
O1           C11   1.275       .  A
O2           Cu9   2.004       .  S
O2           C12   1.275       .  A
O3         Cu585   2.016       .  S
O3          C589   1.277       .  A
O4           Cu9   2.014       .  S
O4           C14   1.277       .  A
O5          Cu10   2.003       .  S
O5           C14   1.275       .  A
O6          Cu10   2.001       .  S
O6           C13   1.275       .  A
O7          Cu10   2.014       .  S
O7           C12   1.277       .  A
O8          Cu10   2.015       .  S
O8           C11   1.277       .  A
Cu9         O291   2.016       .  S
Cu9         Cu10   2.376       .  S
C11         C283   1.434       .  S
C12         C286   1.435       .  S
C13         O291   1.277       .  A
C13         C570   1.434       .  S
C14         C288   1.434       .  S
O15         Cu23   2.004       .  S
O15          C25   1.275       .  A
O16         Cu23   2.002       .  S
O16          C26   1.275       .  A
O17         Cu23   2.014       .  S
O17          C27   1.277       .  A
O18         Cu23   2.016       .  S
O18          C28   1.277       .  A
O19         Cu24   2.001       .  S
O19          C28   1.275       .  A
O20         Cu24   2.003       .  S
O20          C27   1.275       .  A
O21         Cu24   2.015       .  S
O21          C26   1.277       .  A
O22         Cu24   2.014       .  S
O22          C25   1.277       .  A
Cu23        Cu24   2.376       .  S
C25         C279   1.435       .  S
C26         C277   1.434       .  S
C27         C287   1.434       .  S
C28         C275   1.434       .  S
O29         Cu37   2.004       .  S
O29          C39   1.275       .  A
O30         Cu37   2.002       .  S
O30          C40   1.275       .  A
O31         Cu37   2.014       .  S
O31         C329   1.277       .  A
O32         Cu37   2.016       .  S
O32          C42   1.277       .  A
O33        Cu326   2.001       .  S
O33          C42   1.275       .  A
O34         Cu38   2.003       .  S
O34          C41   1.275       .  A
O35         Cu38   2.015       .  S
O35         C616   1.277   1_554  A
O36         Cu38   2.015       .  S
O36         C615   1.277   1_554  A
Cu37       Cu326   2.376       .  S
Cu38        O609   2.001   1_554  S
Cu38       Cu613   2.376   1_554  S
C39         O324   1.277       .  A
C39         C285   1.435       .  S
C40         O323   1.277       .  A
C40         C271   1.434       .  S
C41         O607   1.277   1_554  A
C41         C273   1.434       .  S
C42         C269   1.434       .  S
O43         Cu51   2.004       .  S
O43          C53   1.275       .  A
O44         Cu51   2.002       .  S
O44          C54   1.275       .  A
O45         Cu51   2.014       .  S
O45          C55   1.277       .  A
O46         Cu51   2.016       .  S
O46          C56   1.277       .  A
O47         Cu52   2.001       .  S
O47          C56   1.275       .  A
O48         Cu52   2.003       .  S
O48          C55   1.275       .  A
O49         Cu52   2.015       .  S
O49          C54   1.277       .  A
O50         Cu52   2.014       .  S
O50          C53   1.277       .  A
Cu51        Cu52   2.376       .  S
C53         C280   1.435       .  S
C54         C268   1.434       .  S
C55         C274   1.434       .  S
C56         C265   1.434       .  S
O57         Cu65   2.015       .  S
O57          C67   1.277       .  A
O58         Cu65   2.015       .  S
O58          C68   1.277       .  A
O59         Cu65   2.001       .  S
O59          C69   1.275   1_554  A
O60         Cu65   2.003       .  S
O60          C70   1.275       .  A
O61         Cu66   2.014   1_554  S
O61          C70   1.277       .  A
O62        Cu354   2.016       .  S
O62         C357   1.277       .  A
O63         Cu66   2.004       .  S
O63          C68   1.275   1_556  A
O64         Cu66   2.002       .  S
O64          C67   1.275   1_556  A
Cu65        Cu66   2.376   1_554  S
Cu66        O638   2.016       .  S
C67         C281   1.434       .  S
C68         C262   1.435       .  S
C69         O638   1.277       .  A
C69         C260   1.434       .  S
C70         C264   1.434       .  S
O71         Cu79   2.015       .  S
O71          C81   1.277       .  A
O72         Cu79   2.014       .  S
O72          C82   1.277       .  A
O73         Cu79   2.001       .  S
O73          C83   1.275       .  A
O74         Cu79   2.003       .  S
O74          C84   1.275       .  A
O75         Cu80   2.014       .  S
O75          C84   1.277       .  A
O76         Cu80   2.016       .  S
O76          C83   1.277       .  A
O77         Cu80   2.004       .  S
O77          C82   1.275       .  A
O78         Cu80   2.002       .  S
O78          C81   1.275       .  A
Cu79        Cu80   2.376       .  S
C81         C270   1.434       .  S
C82         C258   1.435       .  S
C83         C255   1.434       .  S
C84         C263   1.434       .  S
O85         Cu93   2.015       .  S
O85         C383   1.277       .  A
O86        Cu669   2.015       .  S
O86          C96   1.277   1_556  A
O87         Cu93   2.003       .  S
O87          C97   1.275       .  A
O88        Cu669   2.001   1_554  S
O88          C98   1.275       .  A
O89         Cu94   2.016       .  S
O89          C98   1.277       .  A
O90         Cu94   2.014       .  S
O90         C673   1.277   1_554  A
O91         Cu94   2.002       .  S
O91          C96   1.275       .  A
O92         Cu94   2.004       .  S
O92          C95   1.275       .  A
Cu93        O374   2.015       .  S
Cu93        O376   2.001       .  S
Cu93       Cu382   2.376       .  S
Cu94       Cu669   2.376   1_554  S
C95         O661   1.277   1_554  A
C95         C261   1.435       .  S
C96         C276   1.434       .  S
C97         O378   1.277       .  A
C97         C254   1.434       .  S
C98         C251   1.434       .  S
O99        Cu107   2.015       .  S
O99         C109   1.277       .  A
O100       Cu107   2.014       .  S
O100        C110   1.277       .  A
O101       Cu107   2.001       .  S
O101        C111   1.275       .  A
O102       Cu107   2.003       .  S
O102        C112   1.275       .  A
O103       Cu108   2.014       .  S
O103        C112   1.277       .  A
O104       Cu108   2.016       .  S
O104        C111   1.277       .  A
O105       Cu108   2.004       .  S
O105        C110   1.275       .  A
O106       Cu108   2.002       .  S
O106        C109   1.275       .  A
Cu107      Cu108   2.376       .  S
C109        C266   1.434       .  S
C110        C257   1.435       .  S
C111        C250   1.434       .  S
C112        C253   1.434       .  S
O113       Cu121   2.002       .  S
O113        C123   1.275       .  A
O114       Cu121   2.004       .  S
O114        C124   1.275       .  A
O115       Cu697   2.016       .  S
O115        C701   1.277       .  A
O116       Cu121   2.014       .  S
O116        C126   1.277       .  A
O117       Cu122   2.003       .  S
O117        C126   1.275       .  A
O118       Cu122   2.001       .  S
O118        C125   1.275       .  A
O119       Cu122   2.015       .  S
O119        C124   1.277       .  A
O120       Cu122   2.015       .  S
O120        C123   1.277       .  A
Cu121       O403   2.016       .  S
Cu121      Cu122   2.376       .  S
C123        C259   1.434       .  S
C124        C245   1.435       .  S
C125        O403   1.277       .  A
C125        C532   1.434       .  S
C126        C247   1.434       .  S
O127       Cu135   2.002       .  S
O127        C137   1.275       .  A
O128       Cu135   2.004       .  S
O128        C138   1.275       .  A
O129       Cu135   2.016       .  S
O129        C139   1.277       .  A
O130       Cu135   2.014       .  S
O130        C140   1.277       .  A
O131       Cu136   2.003       .  S
O131        C140   1.275       .  A
O132       Cu136   2.001       .  S
O132        C139   1.275       .  A
O133       Cu136   2.015       .  S
O133        C138   1.277       .  A
O134       Cu136   2.015       .  S
O134        C137   1.277       .  A
Cu135      Cu136   2.376       .  S
C137        C252   1.434       .  S
C138        C242   1.435       .  S
C139        C240   1.434       .  S
C140        C248   1.434       .  S
O141       Cu149   2.002       .  S
O141        C151   1.275       .  A
O142       Cu149   2.004       .  S
O142        C152   1.275       .  A
O143       Cu149   2.016       .  S
O143        C153   1.277       .  A
O144       Cu149   2.014       .  S
O144        C442   1.277       .  A
O145       Cu150   2.003       .  S
O145        C154   1.275       .  A
O146       Cu438   2.001       .  S
O146        C153   1.275       .  A
O147       Cu150   2.014       .  S
O147        C728   1.277   1_554  A
O148       Cu150   2.015       .  S
O148        C727   1.277   1_554  A
Cu149      Cu438   2.376       .  S
Cu150       O722   2.001   1_554  S
Cu150      Cu725   2.376   1_554  S
C151        O436   1.277       .  A
C151        C256   1.434   1_655  S
C152        O435   1.277       .  A
C152        C246   1.435       .  S
C153        C235   1.434       .  S
C154        O720   1.277   1_554  A
C154        C237   1.434       .  S
O155       Cu163   2.002       .  S
O155        C165   1.275       .  A
O156       Cu163   2.004       .  S
O156        C166   1.275       .  A
O157       Cu163   2.016       .  S
O157        C167   1.277       .  A
O158       Cu163   2.014       .  S
O158        C168   1.277       .  A
O159       Cu164   2.003       .  S
O159        C168   1.275       .  A
O160       Cu164   2.001       .  S
O160        C167   1.275       .  A
O161       Cu164   2.015       .  S
O161        C166   1.277       .  A
O162       Cu164   2.015       .  S
O162        C165   1.277       .  A
Cu163      Cu164   2.376       .  S
C165        C249   1.434   1_655  S
C166        C241   1.435       .  S
C167        C233   1.434       .  S
C168        C238   1.434       .  S
O169       Cu177   2.015       .  S
O169        C179   1.277       .  A
O170       Cu177   2.014       .  S
O170        C180   1.277       .  A
O171       Cu177   2.001       .  S
O171        C181   1.275   1_554  A
O172       Cu177   2.003       .  S
O172        C182   1.275       .  A
O173       Cu178   2.014   1_554  S
O173        C182   1.277       .  A
O174       Cu466   2.016       .  S
O174        C469   1.277       .  A
O175       Cu178   2.004       .  S
O175        C180   1.275   1_556  A
O176       Cu178   2.002       .  S
O176        C179   1.275   1_556  A
Cu177      Cu178   2.376   1_554  S
Cu178       O750   2.016       .  S
C179        C243   1.434       .  S
C180        C230   1.435       .  S
C181        O750   1.277       .  A
C181        C284   1.434       .  S
C182        C231   1.434       .  S
O183       Cu191   2.014       .  S
O183        C193   1.277       .  A
O184       Cu191   2.015       .  S
O184        C194   1.277       .  A
O185       Cu191   2.003       .  S
O185        C195   1.275       .  A
O186       Cu191   2.001       .  S
O186        C196   1.275       .  A
O187       Cu192   2.016       .  S
O187        C196   1.277       .  A
O188       Cu192   2.014       .  S
O188        C195   1.277       .  A
O189       Cu192   2.002       .  S
O189        C194   1.275       .  A
O190       Cu192   2.004       .  S
O190        C193   1.275       .  A
Cu191      Cu192   2.376       .  S
C193        C227   1.435       .  S
C194        C236   1.434       .  S
C195        C232   1.434       .  S
C196        C272   1.434       .  S
O197       Cu781   2.015       .  S
O197        C207   1.277   1_556  A
O198       Cu205   2.014       .  S
O198        C496   1.277       .  A
O199       Cu781   2.001   1_554  S
O199        C209   1.275       .  A
O200       Cu205   2.003       .  S
O200        C210   1.275       .  A
O201       Cu206   2.014       .  S
O201        C786   1.277   1_554  A
O202       Cu206   2.016       .  S
O202        C209   1.277       .  A
O203       Cu206   2.004       .  S
O203        C208   1.275       .  A
O204       Cu206   2.002       .  S
O204        C207   1.275       .  A
Cu205       O485   2.015       .  S
Cu205       O487   2.001       .  S
Cu205      Cu494   2.376       .  S
Cu206      Cu781   2.376   1_554  S
C207        C239   1.434       .  S
C208        O774   1.277   1_554  A
C208        C229   1.435       .  S
C209        C278   1.434       .  S
C210        O489   1.277       .  A
C210        C226   1.434       .  S
O211       Cu219   2.015       .  S
O211        C221   1.277       .  A
O212       Cu219   2.015       .  S
O212        C222   1.277       .  A
O213       Cu219   2.001       .  S
O213        C223   1.275       .  A
O214       Cu219   2.003       .  S
O214        C224   1.275       .  A
O215       Cu220   2.014       .  S
O215        C224   1.277       .  A
O216       Cu220   2.016       .  S
O216        C223   1.277       .  A
O217       Cu220   2.004       .  S
O217        C222   1.275       .  A
O218       Cu220   2.002       .  S
O218        C221   1.275       .  A
Cu219      Cu220   2.376       .  S
C221        C234   1.434       .  S
C222        C228   1.435       .  S
C223        C267   1.434       .  S
C224        C225   1.434       .  S
C225        C226   1.205       .  T
C227        C228   1.206       .  T
C229        C230   1.206       .  T
C231        C232   1.205       .  T
C233        C234   1.205   1_545  T
C235        C236   1.205       .  T
C237        C238   1.205       .  T
C239        C240   1.205   1_565  T
C241        C242   1.206       .  T
C243        C244   1.205       .  T
C244        C701   1.434       .  S
C245        C246   1.206       .  T
C247        C248   1.205       .  T
C249        C250   1.205       .  T
C251        C252   1.205       .  T
C253        C254   1.205       .  T
C255        C256   1.205       .  T
C257        C258   1.206       .  T
C259        C548   1.205       .  T
C260        C835   1.205       .  T
C261        C262   1.206       .  T
C263        C264   1.205       .  T
C265        C266   1.205   1_565  T
C267        C268   1.205   1_655  T
C269        C270   1.205       .  T
C271        C272   1.205   1_455  T
C273        C274   1.205       .  T
C275        C276   1.205   1_565  T
C277        C278   1.205       .  T
C279        C280   1.206       .  T
C281        C282   1.205       .  T
C282        C589   1.434       .  S
C283        C572   1.205       .  T
C284        C859   1.205       .  T
C285        C286   1.206       .  T
C287        C288   1.205       .  T
O289       Cu297   2.002       .  S
O289        C299   1.275       .  A
O290       Cu297   2.004       .  S
O290        C300   1.275       .  A
O292       Cu297   2.014       .  S
O292        C302   1.277       .  A
O293       Cu298   2.003       .  S
O293        C302   1.275       .  A
O294       Cu298   2.001       .  S
O294        C301   1.275       .  A
O295       Cu298   2.014       .  S
O295        C300   1.277       .  A
O296       Cu298   2.015       .  S
O296        C299   1.277       .  A
Cu297       O579   2.016       .  S
Cu297      Cu298   2.376       .  S
C299        C571   1.434       .  S
C300        C574   1.435       .  S
C301        O579   1.277       .  A
C301        C858   1.434       .  S
C302        C576   1.434       .  S
O303       Cu311   2.004       .  S
O303        C313   1.275       .  A
O304       Cu311   2.002       .  S
O304        C314   1.275       .  A
O305       Cu311   2.014       .  S
O305        C315   1.277       .  A
O306       Cu311   2.016       .  S
O306        C316   1.277       .  A
O307       Cu312   2.001       .  S
O307        C316   1.275       .  A
O308       Cu312   2.003       .  S
O308        C315   1.275       .  A
O309       Cu312   2.015       .  S
O309        C314   1.277       .  A
O310       Cu312   2.014       .  S
O310        C313   1.277       .  A
Cu311      Cu312   2.376       .  S
C313        C567   1.435       .  S
C314        C565   1.434       .  S
C315        C575   1.434       .  S
C316        C563   1.434       .  S
O317       Cu325   2.004       .  S
O317        C327   1.275       .  A
O318       Cu325   2.002       .  S
O318        C328   1.275       .  A
O319       Cu325   2.014       .  S
O319        C617   1.277       .  A
O320       Cu325   2.016       .  S
O320        C330   1.277       .  A
O321       Cu614   2.001       .  S
O321        C330   1.275       .  A
O322       Cu326   2.003       .  S
O322        C329   1.275       .  A
O323       Cu326   2.015       .  S
O324       Cu326   2.015       .  S
Cu325      Cu614   2.376       .  S
C327        O612   1.277       .  A
C327        C573   1.435       .  S
C328        O611   1.277       .  A
C328        C559   1.434       .  S
C329        C561   1.434       .  S
C330        C557   1.434       .  S
O331       Cu339   2.004       .  S
O331        C341   1.275       .  A
O332       Cu339   2.002       .  S
O332        C342   1.275       .  A
O333       Cu339   2.014       .  S
O333        C343   1.277       .  A
O334       Cu339   2.016       .  S
O334        C344   1.277       .  A
O335       Cu340   2.001       .  S
O335        C344   1.275       .  A
O336       Cu340   2.003       .  S
O336        C343   1.275       .  A
O337       Cu340   2.015       .  S
O337        C342   1.277       .  A
O338       Cu340   2.014       .  S
O338        C341   1.277       .  A
Cu339      Cu340   2.376       .  S
C341        C568   1.435       .  S
C342        C556   1.434       .  S
C343        C562   1.434       .  S
C344        C553   1.434       .  S
O345       Cu353   2.015       .  S
O345        C355   1.277       .  A
O346       Cu353   2.015       .  S
O346        C356   1.277       .  A
O347       Cu353   2.001       .  S
O347        C357   1.275       .  A
O348       Cu353   2.003       .  S
O348        C358   1.275       .  A
O349       Cu354   2.014       .  S
O349        C358   1.277       .  A
O350       Cu642   2.016       .  S
O350        C645   1.277       .  A
O351       Cu354   2.004       .  S
O351        C356   1.275       .  A
O352       Cu354   2.002       .  S
O352        C355   1.275       .  A
Cu353      Cu354   2.376       .  S
C355        C569   1.434       .  S
C356        C550   1.435       .  S
C357        C548   1.434       .  S
C358        C552   1.434       .  S
O359       Cu367   2.015       .  S
O359        C369   1.277       .  A
O360       Cu367   2.014       .  S
O360        C370   1.277       .  A
O361       Cu367   2.001       .  S
O361        C371   1.275       .  A
O362       Cu367   2.003       .  S
O362        C372   1.275       .  A
O363       Cu368   2.014       .  S
O363        C372   1.277       .  A
O364       Cu368   2.016       .  S
O364        C371   1.277       .  A
O365       Cu368   2.004       .  S
O365        C370   1.275       .  A
O366       Cu368   2.002       .  S
O366        C369   1.275       .  A
Cu367      Cu368   2.376       .  S
C369        C558   1.434       .  S
C370        C546   1.435       .  S
C371        C543   1.434       .  S
C372        C551   1.434       .  S
O373       Cu381   2.015       .  S
O373        C671   1.277       .  A
O374        C384   1.277       .  A
O375       Cu381   2.003       .  S
O375        C385   1.275       .  A
O376        C386   1.275       .  A
O377       Cu382   2.016       .  S
O377        C386   1.277       .  A
O378       Cu382   2.014       .  S
O379       Cu382   2.002       .  S
O379        C384   1.275       .  A
O380       Cu382   2.004       .  S
O380        C383   1.275       .  A
Cu381       O662   2.015       .  S
Cu381       O664   2.001       .  S
Cu381      Cu670   2.376       .  S
C383        C549   1.435       .  S
C384        C564   1.434       .  S
C385        O666   1.277       .  A
C385        C542   1.434       .  S
C386        C539   1.434       .  S
O387       Cu395   2.015       .  S
O387        C397   1.277       .  A
O388       Cu395   2.014       .  S
O388        C398   1.277       .  A
O389       Cu395   2.001       .  S
O389        C399   1.275       .  A
O390       Cu395   2.003       .  S
O390        C400   1.275       .  A
O391       Cu396   2.014       .  S
O391        C400   1.277       .  A
O392       Cu396   2.016       .  S
O392        C399   1.277       .  A
O393       Cu396   2.004       .  S
O393        C398   1.275       .  A
O394       Cu396   2.002       .  S
O394        C397   1.275       .  A
Cu395      Cu396   2.376       .  S
C397        C554   1.434       .  S
C398        C545   1.435       .  S
C399        C538   1.434       .  S
C400        C541   1.434       .  S
O401       Cu409   2.002       .  S
O401        C411   1.275       .  A
O402       Cu409   2.004       .  S
O402        C412   1.275       .  A
O404       Cu409   2.014       .  S
O404        C414   1.277       .  A
O405       Cu410   2.003       .  S
O405        C414   1.275       .  A
O406       Cu410   2.001       .  S
O406        C413   1.275       .  A
O407       Cu410   2.015       .  S
O407        C412   1.277       .  A
O408       Cu410   2.015       .  S
O408        C411   1.277       .  A
Cu409       O691   2.016       .  S
Cu409      Cu410   2.376       .  S
C411        C547   1.434       .  S
C412        C533   1.435       .  S
C413        O691   1.277       .  A
C413        C820   1.434       .  S
C414        C535   1.434       .  S
O415       Cu423   2.002       .  S
O415        C425   1.275       .  A
O416       Cu423   2.004       .  S
O416        C426   1.275       .  A
O417       Cu423   2.016       .  S
O417        C427   1.277       .  A
O418       Cu423   2.014       .  S
O418        C428   1.277       .  A
O419       Cu424   2.003       .  S
O419        C428   1.275       .  A
O420       Cu424   2.001       .  S
O420        C427   1.275       .  A
O421       Cu424   2.015       .  S
O421        C426   1.277       .  A
O422       Cu424   2.015       .  S
O422        C425   1.277       .  A
Cu423      Cu424   2.376       .  S
C425        C540   1.434       .  S
C426        C530   1.435       .  S
C427        C528   1.434       .  S
C428        C536   1.434       .  S
O429       Cu437   2.002       .  S
O429        C439   1.275       .  A
O430       Cu437   2.004       .  S
O430        C440   1.275       .  A
O431       Cu437   2.016       .  S
O431        C441   1.277       .  A
O432       Cu437   2.014       .  S
O432        C730   1.277       .  A
O433       Cu438   2.003       .  S
O433        C442   1.275       .  A
O434       Cu726   2.001       .  S
O434        C441   1.275       .  A
O435       Cu438   2.014       .  S
O436       Cu438   2.015       .  S
Cu437      Cu726   2.376       .  S
C439        O724   1.277       .  A
C439        C544   1.434   1_655  S
C440        O723   1.277       .  A
C440        C534   1.435       .  S
C441        C523   1.434       .  S
C442        C525   1.434       .  S
O443       Cu451   2.002       .  S
O443        C453   1.275       .  A
O444       Cu451   2.004       .  S
O444        C454   1.275       .  A
O445       Cu451   2.016       .  S
O445        C455   1.277       .  A
O446       Cu451   2.014       .  S
O446        C456   1.277       .  A
O447       Cu452   2.003       .  S
O447        C456   1.275       .  A
O448       Cu452   2.001       .  S
O448        C455   1.275       .  A
O449       Cu452   2.015       .  S
O449        C454   1.277       .  A
O450       Cu452   2.015       .  S
O450        C453   1.277       .  A
Cu451      Cu452   2.376       .  S
C453        C537   1.434   1_655  S
C454        C529   1.435       .  S
C455        C521   1.434       .  S
C456        C526   1.434       .  S
O457       Cu465   2.015       .  S
O457        C467   1.277       .  A
O458       Cu465   2.014       .  S
O458        C468   1.277       .  A
O459       Cu465   2.001       .  S
O459        C469   1.275       .  A
O460       Cu465   2.003       .  S
O460        C470   1.275       .  A
O461       Cu466   2.014       .  S
O461        C470   1.277       .  A
O462       Cu754   2.016       .  S
O462        C757   1.277       .  A
O463       Cu466   2.004       .  S
O463        C468   1.275       .  A
O464       Cu466   2.002       .  S
O464        C467   1.275       .  A
Cu465      Cu466   2.376       .  S
C467        C531   1.434       .  S
C468        C518   1.435       .  S
C469        C572   1.434       .  S
C470        C519   1.434       .  S
O471       Cu479   2.014       .  S
O471        C481   1.277       .  A
O472       Cu479   2.015       .  S
O472        C482   1.277       .  A
O473       Cu479   2.003       .  S
O473        C483   1.275       .  A
O474       Cu479   2.001       .  S
O474        C484   1.275       .  A
O475       Cu480   2.016       .  S
O475        C484   1.277       .  A
O476       Cu480   2.014       .  S
O476        C483   1.277       .  A
O477       Cu480   2.002       .  S
O477        C482   1.275       .  A
O478       Cu480   2.004       .  S
O478        C481   1.275       .  A
Cu479      Cu480   2.376       .  S
C481        C515   1.435       .  S
C482        C524   1.434       .  S
C483        C520   1.434       .  S
C484        C560   1.434       .  S
O485        C495   1.277       .  A
O486       Cu493   2.014       .  S
O486        C784   1.277       .  A
O487        C497   1.275       .  A
O488       Cu493   2.003       .  S
O488        C498   1.275       .  A
O489       Cu494   2.014       .  S
O490       Cu494   2.016       .  S
O490        C497   1.277       .  A
O491       Cu494   2.004       .  S
O491        C496   1.275       .  A
O492       Cu494   2.002       .  S
O492        C495   1.275       .  A
Cu493       O773   2.015       .  S
Cu493       O775   2.001       .  S
Cu493      Cu782   2.376       .  S
C495        C527   1.434       .  S
C496        C517   1.435       .  S
C497        C566   1.434       .  S
C498        O777   1.277       .  A
C498        C514   1.434       .  S
O499       Cu507   2.015       .  S
O499        C509   1.277       .  A
O500       Cu507   2.015       .  S
O500        C510   1.277       .  A
O501       Cu507   2.001       .  S
O501        C511   1.275       .  A
O502       Cu507   2.003       .  S
O502        C512   1.275       .  A
O503       Cu508   2.014       .  S
O503        C512   1.277       .  A
O504       Cu508   2.016       .  S
O504        C511   1.277       .  A
O505       Cu508   2.004       .  S
O505        C510   1.275       .  A
O506       Cu508   2.002       .  S
O506        C509   1.275       .  A
Cu507      Cu508   2.376       .  S
C509        C522   1.434       .  S
C510        C516   1.435       .  S
C511        C555   1.434       .  S
C512        C513   1.434       .  S
C513        C514   1.205       .  T
C515        C516   1.206       .  T
C517        C518   1.206       .  T
C519        C520   1.205       .  T
C521        C522   1.205   1_545  T
C523        C524   1.205       .  T
C525        C526   1.205       .  T
C527        C528   1.205   1_565  T
C529        C530   1.206       .  T
C531        C532   1.205       .  T
C533        C534   1.206       .  T
C535        C536   1.205       .  T
C537        C538   1.205       .  T
C539        C540   1.205       .  T
C541        C542   1.205       .  T
C543        C544   1.205       .  T
C545        C546   1.206       .  T
C547        C836   1.205       .  T
C549        C550   1.206       .  T
C551        C552   1.205       .  T
C553        C554   1.205   1_565  T
C555        C556   1.205   1_655  T
C557        C558   1.205       .  T
C559        C560   1.205   1_455  T
C561        C562   1.205       .  T
C563        C564   1.205   1_565  T
C565        C566   1.205       .  T
C567        C568   1.206       .  T
C569        C570   1.205       .  T
C571        C860   1.205       .  T
C573        C574   1.206       .  T
C575        C576   1.205       .  T
O577       Cu585   2.002       .  S
O577        C587   1.275   1_554  A
O578       Cu585   2.004       .  S
O578        C588   1.275   1_554  A
O580       Cu585   2.014   1_556  S
O580        C590   1.277       .  A
O581       Cu586   2.003       .  S
O581        C590   1.275       .  A
O582       Cu586   2.001       .  S
O582        C589   1.275   1_556  A
O583       Cu586   2.014       .  S
O583        C588   1.277       .  A
O584       Cu586   2.015       .  S
O584        C587   1.277       .  A
Cu585      Cu586   2.376   1_554  S
C587        C859   1.434       .  S
C588        C862   1.435       .  S
C590        C864   1.434       .  S
O591       Cu599   2.004       .  S
O591        C601   1.275       .  A
O592       Cu599   2.002       .  S
O592        C602   1.275       .  A
O593       Cu599   2.014       .  S
O593        C603   1.277       .  A
O594       Cu599   2.016       .  S
O594        C604   1.277       .  A
O595       Cu600   2.001       .  S
O595        C604   1.275       .  A
O596       Cu600   2.003       .  S
O596        C603   1.275       .  A
O597       Cu600   2.015       .  S
O597        C602   1.277       .  A
O598       Cu600   2.014       .  S
O598        C601   1.277       .  A
Cu599      Cu600   2.376       .  S
C601        C855   1.435       .  S
C602        C853   1.434       .  S
C603        C863   1.434       .  S
C604        C851   1.434       .  S
O605       Cu613   2.004       .  S
O605        C615   1.275       .  A
O606       Cu613   2.002       .  S
O606        C616   1.275       .  A
O607       Cu613   2.014       .  S
O608       Cu613   2.016       .  S
O608        C618   1.277       .  A
O609        C618   1.275       .  A
O610       Cu614   2.003       .  S
O610        C617   1.275       .  A
O611       Cu614   2.015       .  S
O612       Cu614   2.015       .  S
C615        C861   1.435       .  S
C616        C847   1.434       .  S
C617        C849   1.434       .  S
C618        C845   1.434       .  S
O619       Cu627   2.004       .  S
O619        C629   1.275       .  A
O620       Cu627   2.002       .  S
O620        C630   1.275       .  A
O621       Cu627   2.014       .  S
O621        C631   1.277       .  A
O622       Cu627   2.016       .  S
O622        C632   1.277       .  A
O623       Cu628   2.001       .  S
O623        C632   1.275       .  A
O624       Cu628   2.003       .  S
O624        C631   1.275       .  A
O625       Cu628   2.015       .  S
O625        C630   1.277       .  A
O626       Cu628   2.014       .  S
O626        C629   1.277       .  A
Cu627      Cu628   2.376       .  S
C629        C856   1.435       .  S
C630        C844   1.434       .  S
C631        C850   1.434       .  S
C632        C841   1.434       .  S
O633       Cu641   2.015       .  S
O633        C643   1.277       .  A
O634       Cu641   2.015       .  S
O634        C644   1.277       .  A
O635       Cu641   2.001       .  S
O635        C645   1.275       .  A
O636       Cu641   2.003       .  S
O636        C646   1.275       .  A
O637       Cu642   2.014       .  S
O637        C646   1.277       .  A
O639       Cu642   2.004       .  S
O639        C644   1.275       .  A
O640       Cu642   2.002       .  S
O640        C643   1.275       .  A
Cu641      Cu642   2.376       .  S
C643        C857   1.434       .  S
C644        C838   1.435       .  S
C645        C836   1.434       .  S
C646        C840   1.434       .  S
O647       Cu655   2.015       .  S
O647        C657   1.277       .  A
O648       Cu655   2.014       .  S
O648        C658   1.277       .  A
O649       Cu655   2.001       .  S
O649        C659   1.275       .  A
O650       Cu655   2.003       .  S
O650        C660   1.275       .  A
O651       Cu656   2.014       .  S
O651        C660   1.277       .  A
O652       Cu656   2.016       .  S
O652        C659   1.277       .  A
O653       Cu656   2.004       .  S
O653        C658   1.275       .  A
O654       Cu656   2.002       .  S
O654        C657   1.275       .  A
Cu655      Cu656   2.376       .  S
C657        C846   1.434       .  S
C658        C834   1.435       .  S
C659        C831   1.434       .  S
C660        C839   1.434       .  S
O661       Cu669   2.015       .  S
O662        C672   1.277       .  A
O663       Cu669   2.003       .  S
O663        C673   1.275       .  A
O664        C674   1.275       .  A
O665       Cu670   2.016       .  S
O665        C674   1.277       .  A
O666       Cu670   2.014       .  S
O667       Cu670   2.002       .  S
O667        C672   1.275       .  A
O668       Cu670   2.004       .  S
O668        C671   1.275       .  A
C671        C837   1.435       .  S
C672        C852   1.434       .  S
C673        C830   1.434       .  S
C674        C827   1.434       .  S
O675       Cu683   2.015       .  S
O675        C685   1.277       .  A
O676       Cu683   2.014       .  S
O676        C686   1.277       .  A
O677       Cu683   2.001       .  S
O677        C687   1.275       .  A
O678       Cu683   2.003       .  S
O678        C688   1.275       .  A
O679       Cu684   2.014       .  S
O679        C688   1.277       .  A
O680       Cu684   2.016       .  S
O680        C687   1.277       .  A
O681       Cu684   2.004       .  S
O681        C686   1.275       .  A
O682       Cu684   2.002       .  S
O682        C685   1.275       .  A
Cu683      Cu684   2.376       .  S
C685        C842   1.434       .  S
C686        C833   1.435       .  S
C687        C826   1.434       .  S
C688        C829   1.434       .  S
O689       Cu697   2.002       .  S
O689        C699   1.275   1_554  A
O690       Cu697   2.004       .  S
O690        C700   1.275   1_554  A
O692       Cu697   2.014   1_556  S
O692        C702   1.277       .  A
O693       Cu698   2.003       .  S
O693        C702   1.275       .  A
O694       Cu698   2.001       .  S
O694        C701   1.275   1_556  A
O695       Cu698   2.015       .  S
O695        C700   1.277       .  A
O696       Cu698   2.015       .  S
O696        C699   1.277       .  A
Cu697      Cu698   2.376   1_554  S
C699        C835   1.434       .  S
C700        C821   1.435       .  S
C702        C823   1.434       .  S
O703       Cu711   2.002       .  S
O703        C713   1.275       .  A
O704       Cu711   2.004       .  S
O704        C714   1.275       .  A
O705       Cu711   2.016       .  S
O705        C715   1.277       .  A
O706       Cu711   2.014       .  S
O706        C716   1.277       .  A
O707       Cu712   2.003       .  S
O707        C716   1.275       .  A
O708       Cu712   2.001       .  S
O708        C715   1.275       .  A
O709       Cu712   2.015       .  S
O709        C714   1.277       .  A
O710       Cu712   2.015       .  S
O710        C713   1.277       .  A
Cu711      Cu712   2.376       .  S
C713        C828   1.434       .  S
C714        C818   1.435       .  S
C715        C816   1.434       .  S
C716        C824   1.434       .  S
O717       Cu725   2.002       .  S
O717        C727   1.275       .  A
O718       Cu725   2.004       .  S
O718        C728   1.275       .  A
O719       Cu725   2.016       .  S
O719        C729   1.277       .  A
O720       Cu725   2.014       .  S
O721       Cu726   2.003       .  S
O721        C730   1.275       .  A
O722        C729   1.275       .  A
O723       Cu726   2.014       .  S
O724       Cu726   2.015       .  S
C727        C832   1.434   1_655  S
C728        C822   1.435       .  S
C729        C811   1.434       .  S
C730        C813   1.434       .  S
O731       Cu739   2.002       .  S
O731        C741   1.275       .  A
O732       Cu739   2.004       .  S
O732        C742   1.275       .  A
O733       Cu739   2.016       .  S
O733        C743   1.277       .  A
O734       Cu739   2.014       .  S
O734        C744   1.277       .  A
O735       Cu740   2.003       .  S
O735        C744   1.275       .  A
O736       Cu740   2.001       .  S
O736        C743   1.275       .  A
O737       Cu740   2.015       .  S
O737        C742   1.277       .  A
O738       Cu740   2.015       .  S
O738        C741   1.277       .  A
Cu739      Cu740   2.376       .  S
C741        C825   1.434   1_655  S
C742        C817   1.435       .  S
C743        C809   1.434       .  S
C744        C814   1.434       .  S
O745       Cu753   2.015       .  S
O745        C755   1.277       .  A
O746       Cu753   2.014       .  S
O746        C756   1.277       .  A
O747       Cu753   2.001       .  S
O747        C757   1.275       .  A
O748       Cu753   2.003       .  S
O748        C758   1.275       .  A
O749       Cu754   2.014       .  S
O749        C758   1.277       .  A
O751       Cu754   2.004       .  S
O751        C756   1.275       .  A
O752       Cu754   2.002       .  S
O752        C755   1.275       .  A
Cu753      Cu754   2.376       .  S
C755        C819   1.434       .  S
C756        C806   1.435       .  S
C757        C860   1.434       .  S
C758        C807   1.434       .  S
O759       Cu767   2.014       .  S
O759        C769   1.277       .  A
O760       Cu767   2.015       .  S
O760        C770   1.277       .  A
O761       Cu767   2.003       .  S
O761        C771   1.275       .  A
O762       Cu767   2.001       .  S
O762        C772   1.275       .  A
O763       Cu768   2.016       .  S
O763        C772   1.277       .  A
O764       Cu768   2.014       .  S
O764        C771   1.277       .  A
O765       Cu768   2.002       .  S
O765        C770   1.275       .  A
O766       Cu768   2.004       .  S
O766        C769   1.275       .  A
Cu767      Cu768   2.376       .  S
C769        C803   1.435       .  S
C770        C812   1.434       .  S
C771        C808   1.434       .  S
C772        C848   1.434       .  S
O773        C783   1.277       .  A
O774       Cu781   2.014       .  S
O775        C785   1.275       .  A
O776       Cu781   2.003       .  S
O776        C786   1.275       .  A
O777       Cu782   2.014       .  S
O778       Cu782   2.016       .  S
O778        C785   1.277       .  A
O779       Cu782   2.004       .  S
O779        C784   1.275       .  A
O780       Cu782   2.002       .  S
O780        C783   1.275       .  A
C783        C815   1.434       .  S
C784        C805   1.435       .  S
C785        C854   1.434       .  S
C786        C802   1.434       .  S
O787       Cu795   2.015       .  S
O787        C797   1.277       .  A
O788       Cu795   2.015       .  S
O788        C798   1.277       .  A
O789       Cu795   2.001       .  S
O789        C799   1.275       .  A
O790       Cu795   2.003       .  S
O790        C800   1.275       .  A
O791       Cu796   2.014       .  S
O791        C800   1.277       .  A
O792       Cu796   2.016       .  S
O792        C799   1.277       .  A
O793       Cu796   2.004       .  S
O793        C798   1.275       .  A
O794       Cu796   2.002       .  S
O794        C797   1.275       .  A
Cu795      Cu796   2.376       .  S
C797        C810   1.434       .  S
C798        C804   1.435       .  S
C799        C843   1.434       .  S
C800        C801   1.434       .  S
C801        C802   1.205       .  T
C803        C804   1.206       .  T
C805        C806   1.206       .  T
C807        C808   1.205       .  T
C809        C810   1.205   1_545  T
C811        C812   1.205       .  T
C813        C814   1.205       .  T
C815        C816   1.205   1_565  T
C817        C818   1.206       .  T
C819        C820   1.205       .  T
C821        C822   1.206       .  T
C823        C824   1.205       .  T
C825        C826   1.205       .  T
C827        C828   1.205       .  T
C829        C830   1.205       .  T
C831        C832   1.205       .  T
C833        C834   1.206       .  T
C837        C838   1.206       .  T
C839        C840   1.205       .  T
C841        C842   1.205   1_565  T
C843        C844   1.205   1_655  T
C845        C846   1.205       .  T
C847        C848   1.205   1_455  T
C849        C850   1.205       .  T
C851        C852   1.205   1_565  T
C853        C854   1.205       .  T
C855        C856   1.206       .  T
C857        C858   1.205       .  T
C861        C862   1.206       .  T
C863        C864   1.205       .  T
