geometry optimzed in LAMMPS
_audit_creation_date              2020-12-01 
_audit_creation_method            'lammps2cif' 
_symmetry_space_group_name_H-M    'P1' 
_symmetry_Int_Tables_number       1 
_symmetry_cell_setting            triclinic 
loop_ 
_symmetry_equiv_pos_as_xyz 
  x,y,z 
_cell_length_a                    30.64988296 
_cell_length_b                    30.71343674435594 
_cell_length_c                    53.336557296140185 
_cell_angle_alpha                 89.71560132005415 
_cell_angle_beta                  90.13939772481213 
_cell_angle_gamma                 90.2522577307469 
loop_ 
_atom_site_label 
_atom_site_type_symbol 
_atom_site_fract_x 
_atom_site_fract_y 
_atom_site_fract_z 
_atom_site_charge 
O1          O  0.02699418  0.81573288  0.54494841    -0.73500
O2          O  0.12640836  0.82239251  0.50118681    -0.73600
O3          O  0.10884229  0.78489858  0.54638976    -0.73600
O4          O  0.04261956  0.85359435  0.50022560    -0.73700
O5          O  0.06755635  0.91357952  0.51851512    -0.73600
O6          O  0.12894203  0.84515638  0.56670743    -0.73600
O7          O  0.15012609  0.88095871  0.52177292    -0.73600
O8          O  0.04773065  0.87741491  0.56341541    -0.73600
Ni9        Ni  0.07565789  0.81709695  0.52228555     1.25400
Ni10       Ni  0.09956326  0.88154619  0.54308685     1.25400
C11         C  0.02158767  0.84480488  0.56182650     0.88600
C12         C  0.15541713  0.85190534  0.50488914     0.88600
C13         C  0.12694175  0.80366856  0.56513217     0.88600
C14         C  0.04213045  0.89502063  0.50273532     0.88800
O15         O  0.87746102  0.72934510  0.67052504    -0.73500
O16         O  0.89181684  0.83201928  0.71140806    -0.73600
O17         O  0.84919259  0.75462487  0.71629431    -0.73600
O18         O  0.92133802  0.80455241  0.66569152    -0.73700
O19         O  0.86329385  0.83291569  0.64654627    -0.73600
O20         O  0.79047635  0.78377849  0.69855636    -0.73600
O21         O  0.83403511  0.86133947  0.69236556    -0.73600
O22         O  0.81845170  0.75905224  0.65312693    -0.73600
Ni23       Ni  0.88702140  0.77937659  0.69177304     1.25400
Ni24       Ni  0.82448480  0.81072316  0.67221507     1.25400
C25         C  0.84632385  0.72835692  0.65434066     0.88600
C26         C  0.86491545  0.86359430  0.70847788     0.88600
C27         C  0.80778341  0.75857839  0.71511251     0.88600
C28         C  0.90403169  0.82315446  0.64663505     0.88800
O29         O  0.11721888  0.67380225  0.66067967    -0.73500
O30         O  0.11851923  0.58179809  0.70938608    -0.73600
O31         O  0.15247774  0.66329253  0.70649382    -0.73600
O32         O  0.08186286  0.59361769  0.66333277    -0.73700
O33         O  0.14129132  0.56816576  0.64448597    -0.73600
O34         O  0.21258868  0.63562291  0.68959049    -0.73600
O35         O  0.17669387  0.55381325  0.69084058    -0.73600
O36         O  0.17777519  0.64808581  0.64383870    -0.73600
Ni37       Ni  0.11543750  0.62886974  0.68568743     1.25400
Ni38       Ni  0.17927098  0.60019195  0.66669505     1.25400
C39         C  0.14752044  0.67657914  0.64421753     0.88600
C40         C  0.14760715  0.55204508  0.70803169     0.88600
C41         C  0.19401376  0.66241761  0.70452816     0.88600
C42         C  0.09964528  0.57145007  0.64590736     0.88800
O43         O  0.96255850  0.57344794  0.55680784    -0.73500
O44         O  0.86172267  0.58449492  0.51418818    -0.73600
O45         O  0.88608091  0.61554738  0.55948797    -0.73600
O46         O  0.94021366  0.54282017  0.51138107    -0.73700
O47         O  0.91215962  0.48398042  0.53011986    -0.73600
O48         O  0.85556585  0.55801765  0.57811229    -0.73600
O49         O  0.83282608  0.52577577  0.53236849    -0.73600
O50         O  0.93277807  0.51572693  0.57543993    -0.73600
Ni51       Ni  0.91347833  0.58105447  0.53470773     1.25400
Ni52       Ni  0.88198218  0.51873858  0.55452530     1.25400
C53         C  0.96441219  0.54280196  0.57324289     0.88600
C54         C  0.83008323  0.55729071  0.51657059     0.88600
C55         C  0.86307888  0.59913724  0.57714414     0.88600
C56         C  0.93759419  0.50149145  0.51381638     0.88800
O57         O  0.60655840  0.66702671  0.80394216    -0.73500
O58         O  0.60949595  0.56196621  0.76551324    -0.73600
O59         O  0.56644438  0.58964121  0.80711940    -0.73600
O60         O  0.64944823  0.64173079  0.76281745    -0.73700
O61         O  0.70355616  0.61705351  0.78682280    -0.73600
O62         O  0.62006292  0.56514906  0.83161069    -0.73600
O63         O  0.66249296  0.53689396  0.78981602    -0.73600
O64         O  0.66093452  0.64238432  0.82794509    -0.73600
Ni65       Ni  0.60617390  0.61563339  0.78384708     1.25400
Ni66       Ni  0.66382451  0.58910621  0.80970670     1.25400
C67         C  0.63279226  0.67158631  0.82248226     0.88600
C68         C  0.63576675  0.53124300  0.77154780     0.88600
C69         C  0.57935567  0.57140318  0.82745433     0.88600
C70         C  0.68994748  0.64106070  0.76868912     0.88800
O71         O  0.43641985  0.58767642  0.91743871    -0.73500
O72         O  0.33071925  0.59816357  0.95639431    -0.73600
O73         O  0.40630067  0.55171520  0.96013325    -0.73600
O74         O  0.36372874  0.63548935  0.91439710    -0.73700
O75         O  0.33394972  0.58357183  0.89071283    -0.73600
O76         O  0.37594086  0.49812980  0.93798257    -0.73600
O77         O  0.30066995  0.54575369  0.93347543    -0.73600
O78         O  0.40536130  0.53444623  0.89564916    -0.73600
Ni79       Ni  0.38504601  0.59504151  0.93806543     1.25400
Ni80       Ni  0.35237615  0.53857431  0.91383999     1.25400
C81         C  0.43774711  0.55981522  0.89951320     0.88600
C82         C  0.29775774  0.57382930  0.95104380     0.88600
C83         C  0.40140918  0.51129290  0.95556726     0.88600
C84         C  0.34571332  0.62333954  0.89403750     0.88800
O85         O  0.37002575  0.76666561  0.80434377    -0.73500
O86         O  0.37128699  0.86959998  0.76396628    -0.73600
O87         O  0.40486012  0.84646337  0.80903542    -0.73600
O88         O  0.33717267  0.78818421  0.75967045    -0.73700
O89         O  0.27621337  0.81109909  0.77804779    -0.73600
O90         O  0.34464775  0.86755836  0.82892749    -0.73600
O91         O  0.31211832  0.89269359  0.78368233    -0.73600
O92         O  0.30864073  0.78839623  0.82282454    -0.73600
Ni93       Ni  0.37293797  0.81719335  0.78349003     1.25400
Ni94       Ni  0.30809054  0.84107134  0.80386258     1.25400
C95         C  0.33934823  0.76078289  0.82028326     0.88600
C96         C  0.34240459  0.89890855  0.76750757     0.88600
C97         C  0.38627469  0.86452644  0.82772185     0.88600
C98         C  0.29567994  0.78755891  0.76174368     0.88800
O99         O  0.52461845  0.84529133  0.91760928    -0.73500
O100        O  0.62865526  0.83283450  0.95803737    -0.73600
O101        O  0.55399748  0.88000143  0.96053084    -0.73600
O102        O  0.59716654  0.79647526  0.91522853    -0.73700
O103        O  0.62744198  0.84882480  0.89183624    -0.73600
O104        O  0.58683781  0.93347534  0.93926559    -0.73600
O105        O  0.66028403  0.88447508  0.93477844    -0.73600
O106        O  0.55658799  0.89931056  0.89678423    -0.73600
Ni107      Ni  0.57525848  0.83670867  0.93874153     1.25400
Ni108      Ni  0.60933803  0.89331465  0.91498743     1.25400
C109        C  0.52351987  0.87476324  0.90040521     0.88600
C110        C  0.66160415  0.85734812  0.95301820     0.88600
C111        C  0.56103923  0.92044924  0.95670465     0.88600
C112        C  0.61628280  0.80888171  0.89519449     0.88800
O113        O  0.50834761  0.33427094  0.04756672    -0.73500
O114        O  0.60601791  0.32528573  0.00220502    -0.73600
O115        O  0.58354340  0.28963292  0.04706422    -0.73600
O116        O  0.52841875  0.36817949  0.00245702    -0.73700
O117        O  0.55975511  0.42459772  0.02173687    -0.73600
O118        O  0.61624434  0.34452728  0.06700666    -0.73600
O119        O  0.63736718  0.38135232  0.02178235    -0.73600
O120        O  0.54184229  0.38966602  0.06663462    -0.73600
Ni121      Ni  0.55566478  0.32739720  0.02396535     1.25400
Ni122      Ni  0.59032671  0.38705986  0.04476892     1.25400
C123        C  0.51011675  0.36280743  0.06510175     0.88600
C124        C  0.63788788  0.35224164  0.00475868     0.88600
C125        C  0.60589524  0.30403109  0.06547295     0.88600
C126        C  0.53249909  0.40907717  0.00574571     0.88800
O127        O  0.35544086  0.24303085  0.16469094    -0.73500
O128        O  0.36646807  0.34128398  0.20883275    -0.73600
O129        O  0.32319537  0.26355460  0.20976562    -0.73600
O130        O  0.39956510  0.31834566  0.16358900    -0.73700
O131        O  0.34421455  0.35080450  0.14440153    -0.73600
O132        O  0.26583942  0.29360440  0.19063668    -0.73600
O133        O  0.30933368  0.37180629  0.18986707    -0.73600
O134        O  0.29923349  0.27507012  0.14576984    -0.73600
Ni135      Ni  0.36314846  0.29070563  0.18750933     1.25400
Ni136      Ni  0.30262497  0.32427511  0.16712714     1.25400
C137        C  0.32550244  0.24309996  0.14781588     0.88600
C138        C  0.33946879  0.37291478  0.20650942     0.88600
C139        C  0.28203044  0.26711825  0.20683508     0.88600
C140        C  0.38511955  0.34200710  0.14569200     0.88800
O141        O  0.60983052  0.17493936  0.16343525    -0.73500
O142        O  0.61985860  0.07731099  0.20822043    -0.73600
O143        O  0.65087766  0.16043592  0.20715605    -0.73600
O144        O  0.57772815  0.09374068  0.16397122    -0.73700
O145        O  0.63571320  0.07202967  0.14224293    -0.73600
O146        O  0.70966886  0.13720576  0.18661732    -0.73600
O147        O  0.67745237  0.05424949  0.18665560    -0.73600
O148        O  0.66875543  0.15287172  0.14268695    -0.73600
Ni149      Ni  0.61257211  0.12715017  0.18657507     1.25400
Ni150      Ni  0.67509288  0.10300084  0.16396373     1.25400
C151        C  0.63700742  0.17933152  0.14534568     0.88600
C152        C  0.65037785  0.04952904  0.20475854     0.88600
C153        C  0.69199906  0.16122360  0.20332772     0.88600
C154        C  0.59424596  0.07483176  0.14491568     0.88800
O155        O  0.45438316  0.09224334  0.05652185    -0.73500
O156        O  0.35679573  0.10120552  0.01113557    -0.73600
O157        O  0.37545718  0.13072977  0.05751306    -0.73600
O158        O  0.43767425  0.06409548  0.01006724    -0.73700
O159        O  0.40890287  0.00315649  0.02590300    -0.73600
O160        O  0.34735948  0.07067734  0.07482517    -0.73600
O161        O  0.32815514  0.04120214  0.02833436    -0.73600
O162        O  0.42632046  0.03121128  0.07231169    -0.73600
Ni163      Ni  0.40687473  0.09921309  0.03313682     1.25400
Ni164      Ni  0.37645635  0.03435360  0.05081095     1.25400
C165        C  0.45691138  0.05962592  0.07164215     0.88600
C166        C  0.32585800  0.07304413  0.01285666     0.88600
C167        C  0.35205271  0.11219862  0.07425530     0.88600
C168        C  0.43585371  0.02263588  0.01118524     0.88800
O169        O  0.87605305  0.25640847  0.30139442    -0.73500
O170        O  0.87363147  0.36191569  0.26288822    -0.73600
O171        O  0.91152738  0.33608282  0.30658128    -0.73600
O172        O  0.83905849  0.28049966  0.25814678    -0.73700
O173        O  0.77976203  0.30315832  0.27838998    -0.73600
O174        O  0.85287337  0.35538328  0.32854737    -0.73600
O175        O  0.81649136  0.38408718  0.28482966    -0.73600
O176        O  0.81599851  0.27676026  0.32166914    -0.73600
Ni177      Ni  0.87712254  0.30826789  0.28140193     1.25400
Ni178      Ni  0.81407958  0.33095549  0.30395676     1.25400
C179        C  0.84644654  0.24923580  0.31785576     0.88600
C180        C  0.84513443  0.39109080  0.26777641     0.88600
C181        C  0.89435009  0.35238357  0.32622948     0.88600
C182        C  0.79772173  0.28043275  0.26118389     0.88800
O183        O  0.03881782  0.33317700  0.41401610    -0.73500
O184        O  0.14233329  0.32764437  0.45516969    -0.73600
O185        O  0.06295043  0.36606925  0.45856109    -0.73600
O186        O  0.11667478  0.29279550  0.41042083    -0.73700
O187        O  0.14190447  0.35069413  0.38952377    -0.73600
O188        O  0.08962461  0.42489153  0.43916295    -0.73600
O189        O  0.16883962  0.38515788  0.43459786    -0.73600
O190        O  0.06520354  0.39189355  0.39502059    -0.73600
Ni191      Ni  0.08956857  0.32779034  0.43529392     1.25400
Ni192      Ni  0.11778452  0.39016482  0.41397428     1.25400
C193        C  0.03440407  0.36423605  0.39797674     0.88600
C194        C  0.17250466  0.35623836  0.45186035     0.88600
C195        C  0.06524915  0.40736545  0.45599816     0.88600
C196        C  0.13564210  0.30942272  0.39130918     0.88800
O197        O  0.10908573  0.16349502  0.30506190    -0.73500
O198        O  0.10127824  0.06150670  0.26340891    -0.73600
O199        O  0.06818504  0.08543745  0.30806179    -0.73600
O200        O  0.14133756  0.14120225  0.26008126    -0.73700
O201        O  0.20021290  0.11448176  0.27927713    -0.73600
O202        O  0.12624233  0.05757498  0.32753460    -0.73600
O203        O  0.16012909  0.03501605  0.28233906    -0.73600
O204        O  0.16722644  0.13567814  0.32386536    -0.73600
Ni205      Ni  0.10290637  0.11371563  0.28338276     1.25400
Ni206      Ni  0.16549146  0.08444903  0.30383915     1.25400
C207        C  0.14006643  0.16684151  0.32122334     0.88600
C208        C  0.12922261  0.03084244  0.26632046     0.88600
C209        C  0.08488109  0.06316720  0.32592850     0.88600
C210        C  0.18274062  0.13935221  0.26272692     0.88800
O211        O  0.94516573  0.07051670  0.41303765    -0.73500
O212        O  0.84240552  0.08704377  0.45283987    -0.73600
O213        O  0.91569658  0.03773610  0.45614732    -0.73600
O214        O  0.87443257  0.12088709  0.40953814    -0.73700
O215        O  0.84181066  0.06880461  0.38724313    -0.73600
O216        O  0.88234216  0.98420224  0.43558411    -0.73600
O217        O  0.80921624  0.03459991  0.43145228    -0.73600
O218        O  0.91207344  0.01718655  0.39232309    -0.73600
Ni219      Ni  0.89520318  0.08087728  0.43375272     1.25400
Ni220      Ni  0.85961439  0.02436556  0.41100617     1.25400
C221        C  0.94567288  0.04112689  0.39601827     0.88600
C222        C  0.80862927  0.06321406  0.44886857     0.88600
C223        C  0.90896395  0.99719484  0.45262424     0.88600
C224        C  0.85492586  0.10836898  0.38967928     0.88800
O225        O  0.61949872  0.23913401  0.67194846    -0.73500
O226        O  0.61035186  0.33799220  0.71597143    -0.73600
O227        O  0.57502970  0.31389646  0.67116143    -0.73600
O228        O  0.65406787  0.26050759  0.71676743    -0.73700
O229        O  0.71029213  0.29245362  0.69751482    -0.73600
O230        O  0.63032899  0.34470264  0.65048510    -0.73600
O231        O  0.66588150  0.36942420  0.69573608    -0.73600
O232        O  0.67600228  0.27085042  0.65305551    -0.73600
Ni233      Ni  0.61280749  0.28704294  0.69487080     1.25400
Ni234      Ni  0.67260511  0.32090811  0.67370743     1.25400
C235        C  0.64849262  0.23961616  0.65458657     0.88600
C236        C  0.63679071  0.37012074  0.71288553     0.88600
C237        C  0.58975471  0.33436712  0.65203648     0.88600
C238        C  0.69514462  0.26513200  0.71360229     0.88800
O239        O  0.46109804  0.32751013  0.55367161    -0.73500
O240        O  0.36195632  0.33047413  0.50972571    -0.73600
O241        O  0.44575093  0.36013150  0.50764805    -0.73600
O242        O  0.37905304  0.29737224  0.55591842    -0.73700
O243        O  0.35856290  0.35925426  0.57406322    -0.73600
O244        O  0.42379106  0.42246026  0.52472049    -0.73600
O245        O  0.33998287  0.39146934  0.52775634    -0.73600
O246        O  0.44038509  0.38999477  0.57098335    -0.73600
Ni247      Ni  0.41255872  0.32676302  0.53099412     1.25400
Ni248      Ni  0.38979779  0.39320002  0.54979325     1.25400
C249        C  0.46619154  0.35735753  0.57016498     0.88600
C250        C  0.33358682  0.36078416  0.51190729     0.88600
C251        C  0.44699607  0.40162165  0.50885039     0.88600
C252        C  0.35997460  0.31762841  0.57367429     0.88800
O253        O  0.36864281  0.19003583  0.66820555    -0.73500
O254        O  0.37528972  0.09138269  0.71284364    -0.73600
O255        O  0.41029141  0.11319941  0.66792869    -0.73600
O256        O  0.33581446  0.17021943  0.71320890    -0.73700
O257        O  0.27743434  0.13975955  0.69543038    -0.73600
O258        O  0.35334527  0.08605576  0.64702304    -0.73600
O259        O  0.31897804  0.06180010  0.69243806    -0.73600
O260        O  0.30951050  0.16121246  0.65057884    -0.73600
Ni261      Ni  0.37456949  0.14197638  0.69134299     1.25400
Ni262      Ni  0.31275680  0.11070562  0.67083457     1.25400
C263        C  0.33788399  0.19156667  0.65180754     0.88600
C264        C  0.34768933  0.06029023  0.70981055     0.88600
C265        C  0.39446743  0.09391811  0.64881805     0.88600
C266        C  0.29454388  0.16652397  0.71111361     0.88800
O267        O  0.52626104  0.09816834  0.55354538    -0.73500
O268        O  0.62530262  0.09895639  0.51016273    -0.73600
O269        O  0.54371153  0.06359080  0.50887412    -0.73600
O270        O  0.60595650  0.13359533  0.55572772    -0.73700
O271        O  0.63017963  0.07426248  0.57540884    -0.73600
O272        O  0.56967825  0.00416840  0.52718861    -0.73600
O273        O  0.65110929  0.04016488  0.52985212    -0.73600
O274        O  0.55035681  0.03804265  0.57256000    -0.73600
Ni275      Ni  0.57473016  0.10062634  0.53127213     1.25400
Ni276      Ni  0.60146020  0.03688747  0.55176444     1.25400
C277        C  0.52261251  0.06894406  0.57061785     0.88600
C278        C  0.65468149  0.06983437  0.51299612     0.88600
C279        C  0.54431890  0.02214520  0.51105804     0.88600
C280        C  0.62580821  0.11568994  0.57422873     0.88800
O281        O  0.11452383  0.26162782  0.80336325    -0.73500
O282        O  0.11512195  0.36931343  0.76759048    -0.73600
O283        O  0.15410124  0.29127755  0.76220014    -0.73600
O284        O  0.07512985  0.33886166  0.80964289    -0.73700
O285        O  0.13097903  0.36048909  0.83355553    -0.73600
O286        O  0.21025338  0.31480040  0.78493420    -0.73600
O287        O  0.17048678  0.39283252  0.79114417    -0.73600
O288        O  0.17092606  0.28360136  0.82657722    -0.73600
Ni289      Ni  0.11275702  0.31478903  0.78483965     1.25400
Ni290      Ni  0.17273567  0.33909951  0.80981709     1.25400
C291        C  0.14206905  0.25487041  0.82100558     0.88600
C292        C  0.14322723  0.39863682  0.77314528     0.88600
C293        C  0.19518694  0.29331800  0.76627297     0.88600
C294        C  0.08996409  0.35507138  0.83002985     0.88800
O295        O  0.93598512  0.32853651  0.91319928    -0.73500
O296        O  0.83058417  0.32624344  0.95230166    -0.73600
O297        O  0.85804156  0.28732183  0.90955913    -0.73600
O298        O  0.90995807  0.36615318  0.95574410    -0.73700
O299        O  0.88456537  0.42219693  0.93352327    -0.73600
O300        O  0.83294153  0.34278167  0.88660149    -0.73600
O301        O  0.80502015  0.38105284  0.92944478    -0.73600
O302        O  0.91003076  0.38394396  0.89115739    -0.73600
Ni303      Ni  0.88424546  0.32503226  0.93356456     1.25400
Ni304      Ni  0.85686836  0.38449663  0.90954122     1.25400
C305        C  0.94097245  0.35738806  0.89592917     0.88600
C306        C  0.79990771  0.35318933  0.94716141     0.88600
C307        C  0.83902658  0.30193195  0.88991122     0.88600
C308        C  0.90863509  0.40700653  0.95120786     0.88800
O309        O  0.86885534  0.15534397  0.80659082    -0.73500
O310        O  0.88102402  0.05555644  0.76403107    -0.73600
O311        O  0.83893651  0.13448611  0.76115790    -0.73600
O312        O  0.91099647  0.07898545  0.80950768    -0.73700
O313        O  0.85302210  0.04885540  0.82797822    -0.73600
O314        O  0.78002821  0.10482164  0.77885871    -0.73600
O315        O  0.82245872  0.02598379  0.78192949    -0.73600
O316        O  0.81025044  0.12558135  0.82409870    -0.73600
Ni317      Ni  0.87698275  0.10688652  0.78455308     1.25400
Ni318      Ni  0.81433496  0.07489124  0.80369695     1.25400
C319        C  0.83691305  0.15753212  0.82202422     0.88600
C320        C  0.85451272  0.02338479  0.76660513     0.88600
C321        C  0.79750419  0.13201583  0.76350394     0.88600
C322        C  0.89421957  0.05608502  0.82710296     0.88800
O323        O  0.03066289  0.07960568  0.91576120    -0.73500
O324        O  0.13452315  0.09902378  0.95566304    -0.73600
O325        O  0.10264353  0.12919404  0.91133516    -0.73600
O326        O  0.05952547  0.05151131  0.96046333    -0.73700
O327        O  0.08986835  0.99522618  0.94089671    -0.73600
O328        O  0.13610124  0.07500550  0.89148622    -0.73600
O329        O  0.16510266  0.04281802  0.93652976    -0.73600
O330        O  0.06456192  0.02527852  0.89657195    -0.73600
Ni331      Ni  0.08099749  0.09184387  0.93664990     1.25400
Ni332      Ni  0.11556843  0.03270902  0.91586085     1.25400
C333        C  0.03107912  0.04916496  0.89924934     0.88600
C334        C  0.16733178  0.07367131  0.95244905     0.88600
C335        C  0.12363695  0.11486882  0.89253336     0.88600
C336        C  0.06386645  0.01063615  0.95744926     0.88800
O337        O  0.38148172  0.67088603  0.29476915    -0.73500
O338        O  0.37645795  0.56341888  0.25829290    -0.73600
O339        O  0.34072170  0.64404768  0.25298624    -0.73600
O340        O  0.41817519  0.59188322  0.30041414    -0.73700
O341        O  0.36167174  0.57153144  0.32411917    -0.73600
O342        O  0.28396357  0.62246477  0.27593559    -0.73600
O343        O  0.32087965  0.54174509  0.28196157    -0.73600
O344        O  0.32423208  0.64951567  0.31750056    -0.73600
Ni345      Ni  0.38121423  0.61799225  0.27567919     1.25400
Ni346      Ni  0.32060510  0.59515415  0.30052445     1.25400
C347        C  0.35370306  0.67769365  0.31225841     0.88600
C348        C  0.34799009  0.53441709  0.26423327     0.88600
C349        C  0.29984554  0.64475384  0.25768900     0.88600
C350        C  0.40284733  0.57580652  0.32076665     0.88800
O351        O  0.54395974  0.59102078  0.41302251    -0.73500
O352        O  0.64156283  0.58966721  0.45859543    -0.73600
O353        O  0.62163365  0.63209644  0.41542487    -0.73600
O354        O  0.56226356  0.54971122  0.45625301    -0.73700
O355        O  0.59206075  0.49505620  0.43498623    -0.73600
O356        O  0.65039833  0.57856196  0.39276190    -0.73600
O357        O  0.67149442  0.53651646  0.43615083    -0.73600
O358        O  0.57310512  0.53667454  0.39185261    -0.73600
Ni359      Ni  0.59151699  0.59248090  0.43669669     1.25400
Ni360      Ni  0.62309253  0.53469465  0.41329568     1.25400
C361        C  0.54208521  0.56387258  0.39481559     0.88600
C362        C  0.67303549  0.56324999  0.45448904     0.88600
C363        C  0.64386038  0.61917099  0.39669162     0.88600
C364        C  0.56543492  0.50912523  0.45157665     0.88800
O365        O  0.45552888  0.84482084  0.41279564    -0.73500
O366        O  0.34914315  0.83028823  0.45088518    -0.73600
O367        O  0.38244080  0.79741878  0.40729956    -0.73600
O368        O  0.42511120  0.87575695  0.45621745    -0.73700
O369        O  0.39530257  0.93171126  0.43625558    -0.73600
O370        O  0.35338236  0.85227490  0.38548905    -0.73600
O371        O  0.32006953  0.88530978  0.42946971    -0.73600
O372        O  0.42540942  0.90073995  0.39253614    -0.73600
Ni373      Ni  0.40372908  0.83509021  0.43266050     1.25400
Ni374      Ni  0.37205071  0.89443526  0.41032591     1.25400
C375        C  0.45744660  0.87496880  0.39601758     0.88600
C376        C  0.31690770  0.85595736  0.44647775     0.88600
C377        C  0.36449986  0.81205131  0.38737387     0.88600
C378        C  0.41989868  0.91672893  0.45382226     0.88800
O379        O  0.63657253  0.76843753  0.31180197    -0.73500
O380        O  0.63764506  0.86601698  0.26697872    -0.73600
O381        O  0.68090849  0.78868157  0.27016424    -0.73600
O382        O  0.59338524  0.84370697  0.30922784    -0.73700
O383        O  0.64436359  0.87451994  0.33312141    -0.73600
O384        O  0.73310238  0.82050499  0.29297253    -0.73600
O385        O  0.68845589  0.89811177  0.29052339    -0.73600
O386        O  0.68911517  0.79862108  0.33460422    -0.73600
Ni387      Ni  0.63539538  0.81591344  0.28861644     1.25400
Ni388      Ni  0.69064004  0.84943447  0.31354252     1.25400
C389        C  0.66320010  0.76665122  0.33029871     0.88600
C390        C  0.66276148  0.89853624  0.27146915     0.88600
C391        C  0.72110779  0.79353104  0.27601430     0.88600
C392        C  0.60411288  0.86610466  0.32845807     0.88800
O393        O  0.10855324  0.74469454  0.16404806    -0.73500
O394        O  0.10254959  0.84292625  0.20792116    -0.73600
O395        O  0.06862925  0.82156897  0.16271914    -0.73600
O396        O  0.14296564  0.76436948  0.20930646    -0.73700
O397        O  0.20093607  0.79222677  0.19000257    -0.73600
O398        O  0.12561091  0.85183139  0.14362939    -0.73600
O399        O  0.16069740  0.87191338  0.18893537    -0.73600
O400        O  0.16595938  0.77386377  0.14495437    -0.73600
Ni401      Ni  0.10374735  0.79251802  0.18679165     1.25400
Ni402      Ni  0.16549281  0.82369829  0.16634902     1.25400
C403        C  0.13750248  0.74338516  0.14676805     0.88600
C404        C  0.13026888  0.87391207  0.20529664     0.88600
C405        C  0.08438944  0.84505665  0.14504571     0.88600
C406        C  0.18431698  0.76663984  0.20655177     0.88800
O407        O  0.95675746  0.84222320  0.04973843    -0.73500
O408        O  0.85515033  0.83222244  0.00708269    -0.73600
O409        O  0.93242581  0.87588551  0.00530696    -0.73600
O410        O  0.88203710  0.79669447  0.05134388    -0.73700
O411        O  0.85246077  0.85132090  0.07270975    -0.73600
O412        O  0.90225290  0.93198553  0.02515677    -0.73600
O413        O  0.82520062  0.88672700  0.02825214    -0.73600
O414        O  0.92556230  0.89800818  0.06930478    -0.73600
Ni415      Ni  0.90739875  0.83480989  0.02746942     1.25400
Ni416      Ni  0.87480103  0.89401439  0.04933675     1.25400
C417        C  0.95673011  0.87099150  0.06717285     0.88600
C418        C  0.82320321  0.85834023  0.01083738     0.88600
C419        C  0.92847276  0.91672132  0.00867062     0.88600
C420        C  0.86295987  0.81102183  0.07084239     0.88800
O421        O  0.00507307  0.59395522  0.04978625    -0.73500
O422        O  0.10470502  0.60173633  0.00584446    -0.73600
O423        O  0.02453182  0.56260618  0.00397976    -0.73600
O424        O  0.08367314  0.63405203  0.05151520    -0.73700
O425        O  0.11134878  0.57511482  0.07016544    -0.73600
O426        O  0.05237129  0.50345611  0.02205843    -0.73600
O427        O  0.13265285  0.54299881  0.02457062    -0.73600
O428        O  0.03319044  0.53495707  0.06741023    -0.73600
Ni429      Ni  0.05365149  0.60018375  0.02702229     1.25400
Ni430      Ni  0.08359570  0.53701815  0.04653576     1.25400
C431        C  0.00254813  0.56295886  0.06600511     0.88600
C432        C  0.13556265  0.57394342  0.00849794     0.88600
C433        C  0.02673537  0.52118246  0.00596217     0.88600
C434        C  0.10575515  0.61641990  0.06918300     0.88800
O435        O  0.88090545  0.68097840  0.16798708    -0.73500
O436        O  0.87915823  0.58170002  0.21172656    -0.73600
O437        O  0.90587488  0.59774051  0.16393915    -0.73600
O438        O  0.85535885  0.66683394  0.21537193    -0.73700
O439        O  0.78880328  0.64884855  0.20167544    -0.73600
O440        O  0.83984626  0.58157048  0.14879615    -0.73600
O441        O  0.81378576  0.56360564  0.19677172    -0.73600
O442        O  0.81437937  0.66408620  0.15406699    -0.73600
Ni443      Ni  0.88259983  0.63219443  0.19040695     1.25400
Ni444      Ni  0.81169574  0.61363640  0.17505733     1.25400
C445        C  0.84857257  0.68804327  0.15323208     0.88600
C446        C  0.84641834  0.55557827  0.21113245     0.88600
C447        C  0.88153722  0.58112130  0.14694021     0.88600
C448        C  0.81395933  0.67087446  0.21615350     0.88800
C449        C  0.96480115  0.56015790  0.08416132    -0.04400
C450        C  0.96543590  0.53015755  0.10474075    -0.01600
C451        C  0.93540685  0.53433352  0.12462019     0.03400
C452        C  0.90282920  0.56625140  0.12362014    -0.04400
C453        C  0.89714814  0.59067485  0.10142845    -0.01600
C454        C  0.92847317  0.58871109  0.08208707     0.03400
C455        C  0.99700502  0.49513959  0.10622017     0.38100
C456        C  0.85986148  0.61936182  0.09884006     0.38100
C457        C  0.92311460  0.61737716  0.06061450     0.36500
C458        C  0.93765029  0.50540467  0.14616307     0.36500
N459        N  0.91833109  0.64090500  0.04382524    -0.38300
N460        N  0.93932367  0.48176310  0.16308735    -0.38300
N461        N  0.82992678  0.64181792  0.09635161    -0.37800
N462        N  0.02195497  0.46703986  0.10762478    -0.37800
C463        C  0.85835663  0.78090806  0.09249061    -0.04400
C464        C  0.89494802  0.75582853  0.09998141    -0.01600
C465        C  0.89192439  0.72683749  0.12033031     0.03400
C466        C  0.85224185  0.72228306  0.13355737    -0.04400
C467        C  0.81579164  0.74779178  0.12633392    -0.01600
C468        C  0.81909241  0.77742766  0.10605446     0.03400
C469        C  0.93650912  0.75963508  0.08704305     0.38100
C470        C  0.77490325  0.74397927  0.13981982     0.38100
C471        C  0.78171053  0.80329213  0.09864485     0.36500
C472        C  0.92946980  0.69998720  0.12659351     0.36500
N473        N  0.75195749  0.82401990  0.09269290    -0.38300
N474        N  0.95944394  0.67871746  0.13144877    -0.38300
N475        N  0.74225225  0.74102935  0.15056269    -0.37800
N476        N  0.97000969  0.76146402  0.07711847    -0.37800
C477        C  0.05371672  0.86175865  0.12546491    -0.04400
C478        C  0.06700705  0.86721329  0.10012776    -0.01600
C479        C  0.03543335  0.87157524  0.08091420     0.03400
C480        C  0.99071680  0.87106039  0.08689963    -0.04400
C481        C  0.97767934  0.87031066  0.11231047    -0.01600
C482        C  0.00893514  0.86635664  0.13145272     0.03400
C483        C  0.11282576  0.86770775  0.09347297     0.38100
C484        C  0.93172668  0.87145237  0.11901510     0.38100
C485        C  0.99436638  0.86655420  0.15738271     0.36500
C486        C  0.04886121  0.87735817  0.05503534     0.36500
N487        N  0.98252471  0.86641229  0.17797433    -0.38300
N488        N  0.05950229  0.88230142  0.03440642    -0.38300
N489        N  0.89527691  0.87252416  0.12458776    -0.37800
N490        N  0.14932516  0.86876741  0.08799383    -0.37800
C491        C  0.13647756  0.70722352  0.12790262    -0.04400
C492        C  0.15400795  0.71342057  0.10342248    -0.01600
C493        C  0.14546695  0.68282087  0.08435015     0.03400
C494        C  0.12185482  0.64446837  0.08973143    -0.04400
C495        C  0.10815974  0.63601358  0.11448588    -0.01600
C496        C  0.11456869  0.66739570  0.13333928     0.03400
C497        C  0.17957017  0.75179642  0.09710994     0.38100
C498        C  0.08448751  0.59619783  0.12036131     0.38100
C499        C  0.09672016  0.65848204  0.15800163     0.36500
C500        C  0.16008267  0.69140252  0.05890534     0.36500
N501        N  0.08122820  0.65061138  0.17725716    -0.38300
N502        N  0.17152374  0.69844118  0.03861547    -0.38300
N503        N  0.06573087  0.56459128  0.12537965    -0.37800
N504        N  0.20045150  0.78197315  0.09188425    -0.37800
C505        C  0.75319223  0.76534609  0.26347878    -0.04400
C506        C  0.77235887  0.77857521  0.24076842    -0.01600
C507        C  0.79427844  0.74789710  0.22585333     0.03400
C508        C  0.79517904  0.70354460  0.23312036    -0.04400
C509        C  0.77940980  0.69114519  0.25682667    -0.01600
C510        C  0.75976372  0.72240933  0.27234355     0.03400
C511        C  0.77017666  0.82384717  0.23306014     0.38100
C512        C  0.78404410  0.64645439  0.26537157     0.38100
C513        C  0.74914273  0.71083916  0.29792420     0.36500
C514        C  0.81646049  0.76231740  0.20332748     0.36500
N515        N  0.74321371  0.70049299  0.31850526    -0.38300
N516        N  0.83476540  0.77491077  0.18577642    -0.38300
N517        N  0.78784160  0.61087496  0.27225644    -0.37800
N518        N  0.76900462  0.86007808  0.22705229    -0.37800
C519        C  0.49617558  0.87912723  0.37931258    -0.04400
C520        C  0.53896042  0.87558902  0.38896690    -0.01600
C521        C  0.57514978  0.87535810  0.37255759     0.03400
C522        C  0.56883506  0.87879010  0.34626043    -0.04400
C523        C  0.52632431  0.88671727  0.33695675    -0.01600
C524        C  0.49016985  0.88573834  0.35322100     0.03400
C525        C  0.54581861  0.87190955  0.41582918     0.38100
C526        C  0.51950794  0.89550254  0.31044554     0.38100
C527        C  0.44655104  0.88834388  0.34260902     0.36500
C528        C  0.61853330  0.86984862  0.38293615     0.36500
N529        N  0.41183262  0.89014379  0.33409102    -0.38300
N530        N  0.65304818  0.86583992  0.39144417    -0.38300
N531        N  0.51405067  0.90254992  0.28933428    -0.37800
N532        N  0.55125132  0.86897860  0.43725256    -0.37800
C533        C  0.65826338  0.65239308  0.37836570    -0.04400
C534        C  0.64328843  0.65002019  0.35342557    -0.01600
C535        C  0.64655095  0.68658410  0.33749993     0.03400
C536        C  0.66395521  0.72662062  0.34659073    -0.04400
C537        C  0.68272029  0.72724069  0.37102522    -0.01600
C538        C  0.67978830  0.69023216  0.38671865     0.03400
C539        C  0.62214279  0.61066369  0.34439825     0.31700
C540        C  0.70489962  0.76557801  0.38054006     0.38100
C541        C  0.69882812  0.69097022  0.41168223     0.36500
C542        C  0.63292541  0.68187333  0.31153454     0.36500
N543        N  0.71416675  0.69139641  0.43153018    -0.38300
N544        N  0.62220205  0.67782683  0.29084909    -0.38300
N545        N  0.72321161  0.79565540  0.38833784    -0.37800
N546        N  0.60527331  0.57948146  0.33699695    -0.37800
C547        C  0.27102560  0.67498992  0.24336925    -0.04400
C548        C  0.28582335  0.71758215  0.23717709    -0.01600
C549        C  0.25706604  0.74820389  0.22634873     0.03400
C550        C  0.21313575  0.73678658  0.22137970    -0.04400
C551        C  0.19800779  0.69479178  0.22871142    -0.01600
C552        C  0.22707315  0.66381198  0.23877048     0.03400
C553        C  0.33036022  0.73092286  0.24264627     0.38100
C554        C  0.15226135  0.68300036  0.22673873     0.38100
C555        C  0.21170462  0.61978309  0.24361821     0.36500
C556        C  0.27228949  0.79239832  0.22182984     0.36500
N557        N  0.19917183  0.58473315  0.24725601    -0.38300
N558        N  0.28442720  0.82767671  0.21844363    -0.38300
N559        N  0.11570917  0.67353333  0.22603874    -0.37800
N560        N  0.36585455  0.74170167  0.24685266    -0.37800
C561        C  0.43361476  0.56657809  0.34155335    -0.04400
C562        C  0.46769152  0.53674109  0.33840881    -0.01600
C563        C  0.50201289  0.53441629  0.35610942     0.03400
C564        C  0.50376901  0.56382428  0.37682865    -0.04400
C565        C  0.46827532  0.59317910  0.37996656    -0.01600
C566        C  0.43274491  0.59292387  0.36308352     0.03400
C567        C  0.46677833  0.50755871  0.31708111     0.38100
C568        C  0.46804105  0.62530827  0.39984416     0.38100
C569        C  0.39549214  0.62083416  0.36769864     0.36500
C570        C  0.53547122  0.50187544  0.35215860     0.36500
N571        N  0.36574183  0.64267602  0.37188274    -0.38300
N572        N  0.56192719  0.47580150  0.34873111    -0.38300
N573        N  0.46738761  0.65123238  0.41551996    -0.37800
N574        N  0.46599067  0.48394127  0.30025199    -0.37800
C575        C  0.35702801  0.71730938  0.32798389    -0.04400
C576        C  0.31905323  0.74010074  0.33517956    -0.01600
C577        C  0.32126818  0.77234246  0.35397892     0.03400
C578        C  0.36145076  0.78206721  0.36564001    -0.04400
C579        C  0.39980222  0.76076835  0.35739438    -0.01600
C580        C  0.39763209  0.72889410  0.33856672     0.03400
C581        C  0.27752771  0.73010668  0.32335039     0.38100
C582        C  0.44189987  0.77011615  0.36874324     0.38100
C583        C  0.43702354  0.70574405  0.33156108     0.36500
C584        C  0.28165047  0.79306738  0.36239251     0.36500
N585        N  0.46840775  0.68725343  0.32611837    -0.38300
N586        N  0.24940470  0.80879364  0.36886469    -0.38300
N587        N  0.47606809  0.77594758  0.37739953    -0.37800
N588        N  0.24445483  0.72209087  0.31388339    -0.37800
C589        C  0.03303566  0.98224446  0.97115451    -0.04400
C590        C  0.02590077  0.98919880  0.99694727    -0.01600
C591        C  0.98892666  0.97121429  0.00879986     0.03400
C592        C  0.95930181  0.94518432  0.99502717    -0.04400
C593        C  0.96640255  0.93822523  0.96923649    -0.01600
C594        C  0.00321573  0.95641021  0.95735055     0.03400
C595        C  0.05744032  0.01389541  0.01147568     0.38100
C596        C  0.93515972  0.91292742  0.95479565     0.38100
C597        C  0.00931643  0.94940655  0.93069410     0.36500
C598        C  0.98240341  0.97841198  0.03540392     0.36500
N599        N  0.01372990  0.94318211  0.90947084    -0.38300
N600        N  0.97731807  0.98453050  0.05658701    -0.38300
N601        N  0.91017863  0.89288571  0.94328218    -0.37800
N602        N  0.08270771  0.03321352  0.02318097    -0.37800
C603        C  0.92416805  0.04044435  0.84697766    -0.04400
C604        C  0.91554507  0.04882094  0.87250443    -0.01600
C605        C  0.95007061  0.04891931  0.89010301     0.03400
C606        C  0.99339168  0.04185211  0.88205414    -0.04400
C607        C  0.00075576  0.02809961  0.85700874    -0.01600
C608        C  0.96595502  0.02623233  0.83986953     0.03400
C609        C  0.87174942  0.05932810  0.88055953     0.38100
C610        C  0.04433556  0.01842850  0.84799659     0.38100
C611        C  0.97337905  0.01105916  0.81445735     0.36500
C612        C  0.94089561  0.05596601  0.91643939     0.36500
N613        N  0.97917557  0.99889658  0.79423707    -0.38300
N614        N  0.93357784  0.06119731  0.93748698    -0.38300
N615        N  0.07895972  0.01064329  0.84070337    -0.37800
N616        N  0.83681944  0.06737660  0.88720991    -0.37800
C617        C  0.93839240  0.43645818  0.96533326    -0.04400
C618        C  0.98233503  0.42400693  0.96960789    -0.01600
C619        C  0.01144905  0.45211790  0.98216765     0.03400
C620        C  0.99731818  0.49330452  0.99044966    -0.04400
C621        C  0.95372708  0.50634906  0.98536760    -0.01600
C622        C  0.92442727  0.47789309  0.97312004     0.03400
C623        C  0.99858596  0.38277534  0.96036913     0.38100
C624        C  0.93809487  0.54868957  0.99310402     0.38100
C625        C  0.87935877  0.49081892  0.96937676     0.36500
C626        C  0.05650602  0.43893510  0.98578907     0.36500
N627        N  0.84344071  0.50119853  0.96648860    -0.38300
N628        N  0.09237078  0.42836190  0.98869187    -0.38300
N629        N  0.92521279  0.58254289  0.99884353    -0.37800
N630        N  0.01206366  0.34999654  0.95320602    -0.37800
C631        C  0.83071105  0.19765057  0.83759365    -0.04400
C632        C  0.80479035  0.19672996  0.85975152    -0.01600
C633        C  0.80338347  0.23331985  0.87559571     0.03400
C634        C  0.82821213  0.27061645  0.86992262    -0.04400
C635        C  0.84989206  0.27372556  0.84672555    -0.01600
C636        C  0.85081570  0.23768982  0.83047819     0.03400
C637        C  0.78019474  0.15826225  0.86705482     0.38100
C638        C  0.87334288  0.31333183  0.84008137     0.38100
C639        C  0.87272213  0.24250943  0.80650763     0.36500
C640        C  0.77608179  0.23296799  0.89780850     0.36500
N641        N  0.89030673  0.24659463  0.78745236    -0.38300
N642        N  0.75380785  0.23296824  0.91529737    -0.38300
N643        N  0.89194862  0.34486005  0.83466743    -0.37800
N644        N  0.76011090  0.12796120  0.87303346    -0.37800
C645        C  0.05869245  0.36306083  0.85052022    -0.04400
C646        C  0.05538762  0.33248550  0.87014736    -0.01600
C647        C  0.01706019  0.32977616  0.88468092     0.03400
C648        C  0.98290771  0.36059812  0.88121094    -0.04400
C649        C  0.98983119  0.39522312  0.86359860    -0.01600
C650        C  0.02718973  0.39574617  0.84817584     0.03400
C651        C  0.09179650  0.30385632  0.87557276     0.38100
C652        C  0.95903203  0.43070684  0.86078489     0.38100
C653        C  0.03454122  0.43135745  0.83072031     0.36500
C654        C  0.01308171  0.29386150  0.90232731     0.36500
N655        N  0.04053171  0.46065242  0.81743948    -0.38300
N656        N  0.01036271  0.26487827  0.91620150    -0.38300
N657        N  0.93472057  0.45916846  0.85836416    -0.37800
N658        N  0.12102073  0.28170951  0.88058825    -0.37800
C659        C  0.13804752  0.21449481  0.83631845    -0.04400
C660        C  0.17531661  0.19188215  0.84507604    -0.01600
C661        C  0.17088469  0.15731536  0.86247191     0.03400
C662        C  0.12926134  0.14515676  0.87114865    -0.04400
C663        C  0.09182315  0.16583037  0.86115084    -0.01600
C664        C  0.09611987  0.20023602  0.84388604     0.03400
C665        C  0.21841833  0.20373432  0.83632423     0.38100
C666        C  0.04831603  0.15290861  0.86909372     0.38100
C667        C  0.05705145  0.22285197  0.83549860     0.36500
C668        C  0.20935323  0.13605034  0.87241918     0.36500
N669        N  0.02588128  0.24082294  0.82895833    -0.38300
N670        N  0.24048481  0.11958685  0.88017594    -0.38300
N671        N  0.01308237  0.14401810  0.87501170    -0.37800
N672        N  0.25340731  0.21204527  0.82977267    -0.37800
C673        C  0.51275835  0.99506838  0.49602388    -0.04400
C674        C  0.49025182  0.01311188  0.47506714    -0.01600
C675        C  0.45710170  0.98925096  0.46267537     0.03400
C676        C  0.44656609  0.94622055  0.47035261    -0.04400
C677        C  0.46771328  0.92899560  0.49196589    -0.01600
C678        C  0.50118065  0.95247030  0.50413790     0.03400
C679        C  0.50188916  0.05582054  0.46526878     0.38100
C680        C  0.45512967  0.88693936  0.50234796     0.38100
C681        C  0.52355358  0.93162560  0.52504406     0.36500
C682        C  0.43435127  0.00961818  0.44180148     0.36500
N683        N  0.54136439  0.91451478  0.54149464    -0.38300
N684        N  0.41618701  0.02628983  0.42533426    -0.38300
N685        N  0.44599144  0.85340346  0.51087870    -0.37800
N686        N  0.51095319  0.08982153  0.45732722    -0.37800
C687        C  0.22460491  0.26646236  0.75047497    -0.04400
C688        C  0.26236385  0.24733501  0.76108828    -0.01600
C689        C  0.28184681  0.21128329  0.74950107     0.03400
C690        C  0.26742417  0.19731147  0.72561778    -0.04400
C691        C  0.23267331  0.21955688  0.71372441    -0.01600
C692        C  0.21120485  0.25367776  0.72616406     0.03400
C693        C  0.28265675  0.26541696  0.78335431     0.38100
C694        C  0.21997041  0.20888886  0.68823276     0.38100
C695        C  0.17679563  0.27725307  0.71323495     0.36500
C696        C  0.31633675  0.18802365  0.76259431     0.36500
N697        N  0.14952141  0.29617090  0.70290026    -0.38300
N698        N  0.34364637  0.16941706  0.77308904    -0.38300
N699        N  0.20980346  0.20058963  0.66788682    -0.37800
N700        N  0.29963890  0.28039066  0.80072676    -0.37800
C701        C  0.42471192  0.08630312  0.62761684    -0.04400
C702        C  0.42823968  0.04556650  0.61568832    -0.01600
C703        C  0.46018647  0.03932835  0.59688663     0.03400
C704        C  0.48802667  0.07409611  0.58972692    -0.04400
C705        C  0.48371685  0.11499845  0.60137461    -0.01600
C706        C  0.45207709  0.12118850  0.61991674     0.03400
C707        C  0.39989780  0.00994780  0.62316902     0.38100
C708        C  0.51313641  0.15071860  0.59508915     0.38100
C709        C  0.44782612  0.16418802  0.63086598     0.36500
C710        C  0.46401767  0.99740342  0.58477721     0.36500
N711        N  0.44525026  0.19859295  0.63944965    -0.38300
N712        N  0.46693420  0.96382748  0.57519691    -0.38300
N713        N  0.53641576  0.17920639  0.59007315    -0.37800
N714        N  0.37716396  0.98155054  0.62910535    -0.37800
C715        C  0.47683032  0.42605701  0.49219632    -0.04400
C716        C  0.52167920  0.41526032  0.49109213    -0.01600
C717        C  0.55082710  0.44160477  0.47719899     0.03400
C718        C  0.53528409  0.47894468  0.46463546    -0.04400
C719        C  0.49010783  0.48844515  0.46492633    -0.01600
C720        C  0.46105859  0.46196711  0.47852709     0.03400
C721        C  0.53831815  0.37837166  0.50521881     0.38100
C722        C  0.47288523  0.52524103  0.45100698     0.38100
C723        C  0.41463288  0.47118918  0.47796866     0.36500
C724        C  0.59702162  0.43154010  0.47686916     0.36500
N725        N  0.37766368  0.47855727  0.47733320    -0.38300
N726        N  0.63389647  0.42361278  0.47657513    -0.38300
N727        N  0.45814710  0.55443206  0.44021482    -0.37800
N728        N  0.55164950  0.34897128  0.51647846    -0.37800
C729        C  0.33581684  0.22760978  0.63303699    -0.04400
C730        C  0.31897735  0.21964333  0.60860781    -0.01600
C731        C  0.32132623  0.25215561  0.59004072     0.03400
C732        C  0.34308174  0.29161452  0.59494776    -0.04400
C733        C  0.35651932  0.30123396  0.61969183    -0.01600
C734        C  0.35206726  0.26961111  0.63880020     0.03400
C735        C  0.30190198  0.17719573  0.60158241     0.38100
C736        C  0.37753558  0.34251088  0.62528810     0.38100
C737        C  0.36464666  0.28041276  0.66427424     0.36500
C738        C  0.30175015  0.24472488  0.56562082     0.36500
N739        N  0.37456847  0.28914171  0.68459634    -0.38300
N740        N  0.28545098  0.23855299  0.54637527    -0.38300
N741        N  0.39431562  0.37539080  0.62979698    -0.37800
N742        N  0.28841922  0.14343602  0.59580096    -0.37800
C743        C  0.72471395  0.23473991  0.72708807    -0.04400
C744        C  0.71706764  0.22430728  0.75250892    -0.01600
C745        C  0.73937228  0.18942138  0.76402323     0.03400
C746        C  0.77015438  0.16482877  0.75028810    -0.04400
C747        C  0.77883902  0.17624815  0.72509781    -0.01600
C748        C  0.75603080  0.21073352  0.71348575     0.03400
C749        C  0.68685846  0.25021631  0.76707851     0.38100
C750        C  0.81049213  0.15175471  0.71077959     0.38100
C751        C  0.76345317  0.21989386  0.68711055     0.36500
C752        C  0.73149568  0.18018221  0.79035025     0.36500
N753        N  0.76942928  0.22706412  0.66606676    -0.38300
N754        N  0.72472530  0.17314824  0.81132776    -0.38300
N755        N  0.83576513  0.13243410  0.69928035    -0.37800
N756        N  0.66291355  0.27090717  0.77873369    -0.37800
C757        C  0.55962837  0.34122887  0.63042635    -0.04400
C758        C  0.55698050  0.38152425  0.61767724    -0.01600
C759        C  0.52699265  0.38698887  0.59765548     0.03400
C760        C  0.50017050  0.35186561  0.58991297    -0.04400
C761        C  0.50387636  0.31119983  0.60221790    -0.01600
C762        C  0.53351086  0.30582008  0.62215376     0.03400
C763        C  0.58440363  0.41757413  0.62548042     0.38100
C764        C  0.47578031  0.27502940  0.59507615     0.38100
C765        C  0.53754483  0.26305949  0.63367743     0.36500
C766        C  0.52413717  0.42862019  0.58485402     0.36500
N767        N  0.54028362  0.22882884  0.64268972    -0.38300
N768        N  0.52176546  0.46187324  0.57465400    -0.38300
N769        N  0.45325195  0.24654506  0.58911660    -0.37800
N770        N  0.60648252  0.44623029  0.63170254    -0.37800
C771        C  0.64028521  0.14379708  0.59538649    -0.04400
C772        C  0.63125579  0.13155638  0.62053189    -0.01600
C773        C  0.63630193  0.16199421  0.64014304     0.03400
C774        C  0.64875343  0.20543829  0.63475143    -0.04400
C775        C  0.65904471  0.21711351  0.60963650    -0.01600
C776        C  0.65614667  0.18612761  0.59033284     0.03400
C777        C  0.61361740  0.08870407  0.62622656     0.38100
C778        C  0.66930620  0.26190919  0.60293657     0.38100
C779        C  0.66853521  0.19838479  0.56497554     0.36500
C780        C  0.62790829  0.14854242  0.66581656     0.36500
N781        N  0.67836363  0.20821876  0.54478353    -0.38300
N782        N  0.62116667  0.13772548  0.68626743    -0.38300
N783        N  0.67716630  0.29762621  0.59751848    -0.37800
N784        N  0.59930309  0.05466470  0.63083512    -0.37800
C785        C  0.69343139  0.07030840  0.49637382    -0.04400
C786        C  0.68944765  0.05747125  0.47116596    -0.01600
C787        C  0.72657248  0.05617302  0.45550077     0.03400
C788        C  0.76849064  0.06792052  0.46491775    -0.04400
C789        C  0.77166403  0.08271700  0.49012019    -0.01600
C790        C  0.73439004  0.08352255  0.50569769     0.03400
C791        C  0.64697241  0.04476039  0.46146905     0.38100
C792        C  0.81311041  0.09680778  0.50051787     0.38100
C793        C  0.73802015  0.09852532  0.53140443     0.36500
C794        C  0.72083020  0.04344385  0.42953152     0.36500
N795        N  0.74088451  0.11056443  0.55187166    -0.38300
N796        N  0.71590253  0.03308472  0.40888139    -0.38300
N797        N  0.84585947  0.10867804  0.50895826    -0.37800
N798        N  0.61307176  0.03464679  0.45380441    -0.37800
C799        C  0.12713665  0.91293388  0.22139810    -0.04400
C800        C  0.14488163  0.91226996  0.24571908    -0.01600
C801        C  0.14390624  0.95003315  0.26071265     0.03400
C802        C  0.12623346  0.98965636  0.25116788    -0.04400
C803        C  0.10654633  0.98928397  0.22699693    -0.01600
C804        C  0.10685731  0.95100922  0.21234153     0.03400
C805        C  0.16458634  0.87252748  0.25521717     0.38100
C806        C  0.08640035  0.02813966  0.21672056     0.38100
C807        C  0.08593336  0.95062901  0.18789112     0.36500
C808        C  0.15995671  0.94708423  0.28628641     0.36500
N809        N  0.06898661  0.95035338  0.16847697    -0.38300
N810        N  0.17269808  0.94445023  0.30668319    -0.38300
N811        N  0.06997671  0.05888481  0.20842812    -0.37800
N812        N  0.18027771  0.84077278  0.26266189    -0.37800
C813        C  0.05489701  0.04586242  0.34532945    -0.04400
C814        C  0.06087614  0.05700033  0.37072072    -0.01600
C815        C  0.02640531  0.05142229  0.38793719     0.03400
C816        C  0.98498187  0.03642366  0.37962348    -0.04400
C817        C  0.98099478  0.02048653  0.35472547    -0.01600
C818        C  0.01609447  0.02478110  0.33785224     0.03400
C819        C  0.10129732  0.07720642  0.37888252     0.38100
C820        C  0.94040459  0.00176535  0.34563291     0.38100
C821        C  0.01201243  0.00846373  0.31241975     0.36500
C822        C  0.03374216  0.06187199  0.41413123     0.36500
N823        N  0.00896314  0.99535389  0.29218010    -0.38300
N824        N  0.03965021  0.07019934  0.43500930    -0.38300
N825        N  0.90819525  0.98674784  0.33820829    -0.37800
N826        N  0.13338105  0.09341080  0.38558370    -0.37800
C827        C  0.21231751  0.35683941  0.46827564    -0.04400
C828        C  0.23451036  0.31806418  0.47451312    -0.01600
C829        C  0.27511341  0.31955873  0.48722028     0.03400
C830        C  0.29215709  0.35966613  0.49642361    -0.04400
C831        C  0.26782800  0.39822638  0.49173512    -0.01600
C832        C  0.22898048  0.39685530  0.47733032     0.03400
C833        C  0.21518216  0.27617714  0.46852854     0.38100
C834        C  0.28224503  0.43991256  0.50151826     0.38100
C835        C  0.20485128  0.43681339  0.47295651     0.36500
C836        C  0.29886314  0.27916921  0.49058666     0.36500
N837        N  0.18561137  0.46864236  0.46952264    -0.38300
N838        N  0.31785331  0.24686971  0.49276153    -0.38300
N839        N  0.29300306  0.47327226  0.50948998    -0.37800
N840        N  0.19945240  0.24259862  0.46450089    -0.37800
C841        C  0.14649948  0.27963003  0.37039919    -0.04400
C842        C  0.12255287  0.28172810  0.34783304    -0.01600
C843        C  0.12180995  0.24595589  0.33123315     0.03400
C844        C  0.14474686  0.20705401  0.33723182    -0.04400
C845        C  0.17257742  0.20736425  0.35873907    -0.01600
C846        C  0.17357368  0.24365296  0.37488359     0.03400
C847        C  0.09747341  0.32032755  0.34189265     0.38100
C848        C  0.19994880  0.17045165  0.36509449     0.38100
C849        C  0.20363353  0.24460558  0.39589126     0.36500
C850        C  0.09721402  0.24994158  0.30804401     0.36500
N851        N  0.22872143  0.24528503  0.41211019    -0.38300
N852        N  0.07752810  0.25344895  0.28959985    -0.38300
N853        N  0.22205835  0.14131696  0.37033850    -0.37800
N854        N  0.07766899  0.35098694  0.33659135    -0.37800
C855        C  0.84558809  0.43377748  0.25369161    -0.04400
C856        C  0.80676585  0.45835794  0.25053021    -0.01600
C857        C  0.80721243  0.49814881  0.23703994     0.03400
C858        C  0.84652523  0.51479839  0.22679435    -0.04400
C859        C  0.88563054  0.49129403  0.23082648    -0.01600
C860        C  0.88506840  0.45085595  0.24365272     0.03400
C861        C  0.76563627  0.44282737  0.26073991     0.38100
C862        C  0.92695145  0.50823559  0.22163598     0.38100
C863        C  0.92583342  0.42741030  0.24657667     0.36500
C864        C  0.76692546  0.52249807  0.23440404     0.36500
N865        N  0.95844351  0.40883974  0.24863251    -0.38300
N866        N  0.73472577  0.54174651  0.23232153    -0.38300
N867        N  0.96008567  0.52177640  0.21464554    -0.37800
N868        N  0.73279040  0.43090376  0.26901658    -0.37800
C869        C  0.92357618  0.36407957  0.34726544    -0.04400
C870        C  0.95780343  0.39390572  0.34349668    -0.01600
C871        C  0.99219941  0.39684210  0.36102631     0.03400
C872        C  0.99381149  0.36790268  0.38206849    -0.04400
C873        C  0.95642456  0.34170303  0.38712002    -0.01600
C874        C  0.92146068  0.34015821  0.36985581     0.03400
C875        C  0.95749938  0.42180082  0.32144684     0.38100
C876        C  0.95319112  0.31608771  0.40998349     0.38100
C877        C  0.88410162  0.31222867  0.37486967     0.36500
C878        C  0.02565558  0.42964993  0.35671355     0.36500
N879        N  0.85427531  0.29015669  0.37906296    -0.38300
N880        N  0.05201129  0.45605080  0.35311777    -0.38300
N881        N  0.95030534  0.29554444  0.42816254    -0.37800
N882        N  0.95738975  0.44444871  0.30405040    -0.37800
C883        C  0.84877550  0.20951554  0.33367101    -0.04400
C884        C  0.88889760  0.19803598  0.34481381    -0.01600
C885        C  0.89080729  0.16326986  0.36194764     0.03400
C886        C  0.85239960  0.14014532  0.36870855    -0.04400
C887        C  0.81279625  0.14970876  0.35640473    -0.01600
C888        C  0.81097987  0.18436676  0.33886820     0.03400
C889        C  0.92812341  0.22349294  0.33988099     0.38100
C890        C  0.77372525  0.12506976  0.36238127     0.38100
C891        C  0.77037508  0.19383114  0.32596553     0.36500
C892        C  0.93293776  0.15172930  0.37255059     0.36500
N893        N  0.73808189  0.20135336  0.31555275    -0.38300
N894        N  0.96711374  0.14377437  0.38056509    -0.38300
N895        N  0.74245805  0.10542238  0.36704747    -0.37800
N896        N  0.95941058  0.24369727  0.33608786    -0.37800
C897        C  0.28629944  0.07713254  0.99691439    -0.04400
C898        C  0.28741583  0.06394452  0.97172615    -0.01600
C899        C  0.24921483  0.06494335  0.95691857     0.03400
C900        C  0.20878257  0.07864352  0.96729904    -0.04400
C901        C  0.20817165  0.09295715  0.99253752    -0.01600
C902        C  0.24652047  0.09125151  0.00735180     0.03400
C903        C  0.32713449  0.04577014  0.96150958     0.38100
C904        C  0.16792623  0.10778416  0.00383815     0.38100
C905        C  0.24441809  0.10177745  0.03380534     0.36500
C906        C  0.25208171  0.05082932  0.93102847     0.36500
N907        N  0.24217016  0.10948653  0.05497568    -0.38300
N908        N  0.25472524  0.03879552  0.91056263    -0.38300
N909        N  0.13602423  0.11998476  0.01294089    -0.37800
N910        N  0.35811213  0.03020868  0.95314691    -0.37800
C911        C  0.66135401  0.93742141  0.25442757    -0.04400
C912        C  0.66152799  0.93211206  0.22806408    -0.01600
C913        C  0.65802948  0.96863909  0.21193363     0.03400
C914        C  0.65443019  0.01107302  0.22188416    -0.04400
C915        C  0.65482447  0.01652436  0.24820419    -0.01600
C916        C  0.65803945  0.97995959  0.26437173     0.03400
C917        C  0.66593472  0.88901583  0.21735323     0.38100
C918        C  0.65303227  0.05996836  0.25872863     0.38100
C919        C  0.65608086  0.98615221  0.29129483     0.36500
C920        C  0.65664661  0.96228001  0.18499467     0.36500
N921        N  0.65434433  0.99108651  0.31277046    -0.38300
N922        N  0.65546145  0.95727285  0.16350791    -0.38300
N923        N  0.65174527  0.09464145  0.26708452    -0.37800
N924        N  0.66941944  0.85471143  0.20872475    -0.37800
C925        C  0.77091473  0.25050778  0.24585589    -0.04400
C926        C  0.73509626  0.26602237  0.23188941    -0.01600
C927        C  0.70960618  0.23679608  0.21768233     0.03400
C928        C  0.71918198  0.19174412  0.21795917    -0.04400
C929        C  0.75461410  0.17615271  0.23215610    -0.01600
C930        C  0.78062703  0.20541686  0.24594000     0.03400
C931        C  0.72513558  0.31215207  0.23164337     0.38100
C932        C  0.76320627  0.12972552  0.23336373     0.38100
C933        C  0.81641015  0.18853662  0.26092982     0.36500
C934        C  0.67448722  0.25338131  0.20207145     0.36500
N935        N  0.84481197  0.17441617  0.27271921    -0.38300
N936        N  0.64666978  0.26676375  0.18954794    -0.38300
N937        N  0.76978091  0.09267858  0.23437044    -0.37800
N938        N  0.71713533  0.34893829  0.23145910    -0.37800
C939        C  0.49553812  0.05517446  0.08882934    -0.04400
C940        C  0.53637412  0.07358807  0.08209148    -0.01600
C941        C  0.57044864  0.07644924  0.09987709     0.03400
C942        C  0.56426070  0.06061873  0.12457170    -0.04400
C943        C  0.52569449  0.03759721  0.13039503    -0.01600
C944        C  0.49196527  0.03375229  0.11243824     0.03400
C945        C  0.54405096  0.08870089  0.05663436     0.38100
C946        C  0.52051909  0.01828318  0.15511775     0.38100
C947        C  0.45415640  0.00727181  0.11854981     0.36500
C948        C  0.61080087  0.09835394  0.09304242     0.36500
N949        N  0.42473892  0.98506912  0.12342439    -0.38300
N950        N  0.64289015  0.11581421  0.08743074    -0.38300
N951        N  0.51639726  0.00300528  0.17485271    -0.37800
N952        N  0.55030560  0.10047078  0.03630508    -0.37800
C953        C  0.34268377  0.41196595  0.22301977    -0.04400
C954        C  0.30482409  0.42872024  0.23446369    -0.01600
C955        C  0.30651794  0.46809046  0.24807973     0.03400
C956        C  0.34632371  0.49172225  0.25042682    -0.04400
C957        C  0.38452498  0.47398823  0.23947796    -0.01600
C958        C  0.38264426  0.43438753  0.22605385     0.03400
C959        C  0.26387010  0.40493760  0.23257856     0.38100
C960        C  0.42632927  0.49597444  0.24197877     0.38100
C961        C  0.42196376  0.41770603  0.21462627     0.36500
C962        C  0.26652793  0.48430136  0.25906750     0.36500
N963        N  0.45380380  0.40499952  0.20574763    -0.38300
N964        N  0.23448911  0.49668696  0.26792059    -0.38300
N965        N  0.45977675  0.51336123  0.24371197    -0.37800
N966        N  0.23126821  0.38596547  0.23105133    -0.37800
C967        C  0.25372532  0.23704952  0.22128819    -0.04400
C968        C  0.22591639  0.20764584  0.20851771    -0.01600
C969        C  0.20411759  0.17429963  0.22186736     0.03400
C970        C  0.21012249  0.16996908  0.24800646    -0.04400
C971        C  0.23841115  0.19904601  0.26068774    -0.01600
C972        C  0.25992486  0.23250979  0.24738473     0.03400
C973        C  0.22134578  0.21016199  0.18145367     0.38100
C974        C  0.24470700  0.19549704  0.28760154     0.38100
C975        C  0.28805776  0.26283921  0.26065820     0.36500
C976        C  0.17696843  0.14323719  0.20852514     0.36500
N977        N  0.31048108  0.28706176  0.27119290    -0.38300
N978        N  0.15559628  0.11833219  0.19780797    -0.38300
N979        N  0.25016822  0.19280985  0.30902831    -0.37800
N980        N  0.21761260  0.21189112  0.15987233    -0.37800
C981        C  0.32212939  0.20641497  0.12979158    -0.04400
C982        C  0.31049791  0.21433361  0.10443524    -0.01600
C983        C  0.31612643  0.18159538  0.08642145     0.03400
C984        C  0.33250834  0.14045873  0.09359346    -0.04400
C985        C  0.33747969  0.13051083  0.11930771    -0.01600
C986        C  0.33267392  0.16351609  0.13736775     0.03400
C987        C  0.29449198  0.25649461  0.09628444     0.38100
C988        C  0.34953333  0.08704636  0.12727439     0.38100
C989        C  0.33862109  0.15316121  0.16373791     0.36500
C990        C  0.30633041  0.19086315  0.06024980     0.36500
N991        N  0.34332866  0.14485720  0.18475759    -0.38300
N992        N  0.29856091  0.19843508  0.03943643    -0.38300
N993        N  0.35852235  0.05235137  0.13396756    -0.37800
N994        N  0.28108520  0.28971286  0.08953877    -0.37800
C995        C  0.67670212  0.35057108  0.98811353    -0.04400
C996        C  0.70297544  0.31307098  0.98726642    -0.01600
C997        C  0.74320198  0.31376916  0.97424230     0.03400
C998        C  0.75759519  0.35220344  0.96160696    -0.04400
C999        C  0.73050238  0.38973159  0.96249408    -0.01600
C1000       C  0.69035487  0.38861267  0.97541592     0.03400
C1001       C  0.68937982  0.27413220  0.00072666     0.38100
C1002       C  0.74412696  0.43059786  0.95109464     0.38100
C1003       C  0.66265446  0.42691395  0.97552597     0.36500
C1004       C  0.76952837  0.27462959  0.97429431     0.36500
N1005       N  0.64052292  0.45735042  0.97560202    -0.38300
N1006       N  0.79047297  0.24336191  0.97463444    -0.38300
N1007       N  0.75462369  0.46333673  0.94206097    -0.37800
N1008       N  0.67844918  0.24315578  0.01148930    -0.37800
C1009       C  0.61499249  0.27346433  0.08642890    -0.04400
C1010       C  0.58010245  0.24813256  0.09619570    -0.01600
C1011       C  0.58738149  0.21838489  0.11581380     0.03400
C1012       C  0.62957999  0.21354532  0.12609557    -0.04400
C1013       C  0.66442851  0.23916131  0.11661331    -0.01600
C1014       C  0.65705813  0.26925245  0.09689919     0.03400
C1015       C  0.53602940  0.25258795  0.08639720     0.38100
C1016       C  0.70778321  0.23489100  0.12725820     0.38100
C1017       C  0.69297508  0.29461360  0.08676240     0.36500
C1018       C  0.55137685  0.19129239  0.12452401     0.36500
N1019       N  0.72158720  0.31482844  0.07857698    -0.38300
N1020       N  0.52254312  0.16987132  0.13133394    -0.38300
N1021       N  0.74239615  0.23141405  0.13573283    -0.37800
N1022       N  0.50064508  0.25517218  0.07893233    -0.37800
C1023       C  0.47758706  0.36279720  0.08558479    -0.04400
C1024       C  0.49239526  0.35804435  0.11049643    -0.01600
C1025       C  0.46242785  0.35389334  0.13027770     0.03400
C1026       C  0.41669196  0.35597881  0.12560941    -0.04400
C1027       C  0.40237134  0.36573570  0.10080005    -0.01600
C1028       C  0.43270418  0.36793619  0.08082835     0.03400
C1029       C  0.53888850  0.35572678  0.11593542     0.38100
C1030       C  0.35667249  0.37339273  0.09541896     0.38100
C1031       C  0.41789059  0.37639488  0.05541443     0.36500
C1032       C  0.47983743  0.34600711  0.15525123     0.36500
N1033       N  0.40612450  0.38326656  0.03514833    -0.38300
N1034       N  0.49475821  0.33868726  0.17476530    -0.38300
N1035       N  0.32038235  0.38032701  0.09095611    -0.37800
N1036       N  0.57574213  0.35423214  0.12062384    -0.37800
C1037       C  0.70197440  0.85627687  0.96866007    -0.04400
C1038       C  0.72145337  0.89607155  0.97598753    -0.01600
C1039       C  0.76204635  0.89647794  0.98838292     0.03400
C1040       C  0.78285984  0.85694601  0.99503813    -0.04400
C1041       C  0.76301351  0.81699032  0.98814277    -0.01600
C1042       C  0.72275724  0.81668924  0.97498377     0.03400
C1043       C  0.69884914  0.93696763  0.97171240     0.38100
C1044       C  0.78338190  0.77608351  0.99498204     0.38100
C1045       C  0.70305616  0.77562275  0.96772191     0.36500
C1046       C  0.78289370  0.93808740  0.99354817     0.36500
N1047       N  0.68723213  0.74284253  0.96201569    -0.38300
N1048       N  0.79947365  0.97126095  0.99758483    -0.38300
N1049       N  0.79967219  0.74341446  0.00037345    -0.37800
N1050       N  0.68071991  0.96950298  0.96848109    -0.37800
C1051       C  0.53502984  0.95163889  0.97147219    -0.04400
C1052       C  0.51214118  0.98551117  0.95920353    -0.01600
C1053       C  0.48031899  0.00940101  0.97223649     0.03400
C1054       C  0.46861070  0.99733561  0.99699182    -0.04400
C1055       C  0.49236982  0.96415450  0.00940865    -0.01600
C1056       C  0.52625181  0.94244357  0.99693447     0.03400
C1057       C  0.51895256  0.99406845  0.93268746     0.38100
C1058       C  0.48320899  0.95303742  0.03538025     0.38100
C1059       C  0.55242546  0.91066997  0.01042149     0.36500
C1060       C  0.45964396  0.04615255  0.95989749     0.36500
N1061       N  0.57342807  0.88547731  0.02116607    -0.38300
N1062       N  0.44402871  0.07586548  0.94997150    -0.38300
N1063       N  0.47593215  0.94385023  0.05602556    -0.37800
N1064       N  0.52396482  0.00071624  0.91150811    -0.37800
C1065       C  0.34432738  0.94098324  0.75304861    -0.04400
C1066       C  0.30617233  0.96657482  0.74979411    -0.01600
C1067       C  0.30821799  0.00674534  0.73697169     0.03400
C1068       C  0.34784770  0.02151324  0.72646196    -0.04400
C1069       C  0.38603639  0.99683474  0.72983355    -0.01600
C1070       C  0.38441325  0.95670985  0.74288724     0.03400
C1071       C  0.26394063  0.95131597  0.75856809     0.38100
C1072       C  0.42688927  0.01201587  0.71909085     0.38100
C1073       C  0.42438486  0.93188755  0.74536761     0.36500
C1074       C  0.26929995  0.03344608  0.73492814     0.36500
N1075       N  0.45639608  0.91220607  0.74702262    -0.38300
N1076       N  0.23837725  0.05479207  0.73335632    -0.38300
N1077       N  0.45945965  0.02418251  0.71057795    -0.37800
N1078       N  0.23011457  0.93947647  0.76546880    -0.37800
C1079       C  0.48442849  0.88004558  0.88365180    -0.04400
C1080       C  0.48855773  0.90088190  0.85981153    -0.01600
C1081       C  0.45307053  0.90179345  0.84306501     0.03400
C1082       C  0.41452548  0.87891644  0.84867653    -0.04400
C1083       C  0.40850984  0.86170639  0.87301822    -0.01600
C1084       C  0.44290351  0.86340117  0.89070752     0.03400
C1085       C  0.52973856  0.91912052  0.85123531     0.38100
C1086       C  0.36797394  0.83980623  0.87943096     0.38100
C1087       C  0.43520990  0.84767124  0.91601035     0.36500
C1088       C  0.45631985  0.92600487  0.81969314     0.36500
N1089       N  0.42886926  0.83531865  0.93621773    -0.38300
N1090       N  0.45897414  0.94608185  0.80135370    -0.38300
N1091       N  0.33569257  0.82226589  0.88457462    -0.37800
N1092       N  0.56244620  0.93347494  0.84410885    -0.37800
C1093       C  0.17607253  0.57771796  0.99328028    -0.04400
C1094       C  0.17539748  0.56884599  0.96741340    -0.01600
C1095       C  0.21478502  0.56784345  0.95359372     0.03400
C1096       C  0.25550537  0.57746593  0.96535047    -0.04400
C1097       C  0.25536176  0.58888129  0.99111503    -0.01600
C1098       C  0.21613687  0.58777832  0.00504528     0.03400
C1099       C  0.13412030  0.55917361  0.95519201     0.38100
C1100       C  0.29549210  0.60100004  0.00377191     0.38100
C1101       C  0.21712959  0.59657299  0.03175801     0.36500
C1102       C  0.21274667  0.55667016  0.92722320     0.36500
N1103       N  0.21818578  0.60323422  0.05308591    -0.38300
N1104       N  0.21069344  0.54707856  0.90629899    -0.38300
N1105       N  0.32717516  0.61139577  0.01399999    -0.37800
N1106       N  0.10114997  0.55156780  0.94549488    -0.37800
C1107       C  0.43062818  0.48079287  0.96900263    -0.04400
C1108       C  0.45753955  0.45251569  0.95503195    -0.01600
C1109       C  0.49271966  0.43108198  0.96674609     0.03400
C1110       C  0.50136261  0.43765927  0.99246199    -0.04400
C1111       C  0.47441610  0.46568993  0.00645713    -0.01600
C1112       C  0.43905479  0.48685880  0.99481671     0.03400
C1113       C  0.45074864  0.44701793  0.92827858     0.38100
C1114       C  0.48196390  0.47177027  0.03310998     0.38100
C1115       C  0.41096921  0.51454303  0.00962594     0.36500
C1116       C  0.52099719  0.40321337  0.95211398     0.36500
N1117       N  0.38884699  0.53642324  0.02171976    -0.38300
N1118       N  0.54361171  0.38106379  0.94046774    -0.38300
N1119       N  0.48784505  0.47682717  0.05434197    -0.37800
N1120       N  0.44559369  0.44243535  0.90694779    -0.37800
C1121       C  0.34366714  0.65576045  0.87349520    -0.04400
C1122       C  0.38163661  0.68073310  0.86810117    -0.01600
C1123       C  0.38004316  0.71457127  0.85042574     0.03400
C1124       C  0.34110887  0.72285165  0.83723312    -0.04400
C1125       C  0.30385069  0.69659622  0.84148203    -0.01600
C1126       C  0.30498918  0.66331291  0.85981659     0.03400
C1127       C  0.42294687  0.67209123  0.88056358     0.38100
C1128       C  0.26461661  0.70346154  0.82674287     0.38100
C1129       C  0.26588993  0.63845653  0.86533236     0.36500
C1130       C  0.41809587  0.74233242  0.84671745     0.36500
N1131       N  0.23434847  0.61903205  0.86964189    -0.38300
N1132       N  0.44805948  0.76472789  0.84355102    -0.38300
N1133       N  0.23345854  0.70887122  0.81484949    -0.37800
N1134       N  0.45640235  0.66647634  0.89011812    -0.37800
C1135       C  0.63495375  0.48851473  0.75730146    -0.04400
C1136       C  0.59919638  0.47742222  0.74127543    -0.01600
C1137       C  0.59922152  0.43813047  0.72744753     0.03400
C1138       C  0.63447096  0.40907391  0.72934227    -0.04400
C1139       C  0.66933290  0.41884065  0.74564898    -0.01600
C1140       C  0.66968064  0.45792133  0.75962485     0.03400
C1141       C  0.56163685  0.50574942  0.73884017     0.38100
C1142       C  0.70501269  0.38811467  0.74815540     0.38100
C1143       C  0.70652278  0.46602106  0.77611487     0.36500
C1144       C  0.56342783  0.42815269  0.71049872     0.36500
N1145       N  0.73596207  0.47194691  0.78932032    -0.38300
N1146       N  0.53498337  0.42018932  0.69693887    -0.38300
N1147       N  0.73331119  0.36349270  0.75010220    -0.37800
N1148       N  0.53156100  0.52813962  0.73670011    -0.37800
C1149       C  0.54626319  0.56079774  0.84701960    -0.04400
C1150       C  0.55282880  0.57372734  0.87221713    -0.01600
C1151       C  0.51831437  0.57103825  0.88974962     0.03400
C1152       C  0.47605226  0.55773533  0.88201112    -0.04400
C1153       C  0.47009209  0.54378023  0.85679157    -0.01600
C1154       C  0.50530456  0.54393104  0.83982966     0.03400
C1155       C  0.59420302  0.59268686  0.87987771     0.38100
C1156       C  0.42724269  0.53174610  0.84733915     0.38100
C1157       C  0.49915520  0.52696186  0.81467910     0.36500
C1158       C  0.52665026  0.58226844  0.91572269     0.36500
N1159       N  0.49426829  0.51326404  0.79468992    -0.38300
N1160       N  0.53346852  0.59116436  0.93643177    -0.38300
N1161       N  0.39316610  0.52235283  0.83962349    -0.37800
N1162       N  0.62703813  0.60811295  0.88600194    -0.37800
C1163       C  0.62106207  0.77647265  0.87496500    -0.04400
C1164       C  0.58396241  0.75177111  0.86776826    -0.01600
C1165       C  0.58762513  0.71894567  0.84968848     0.03400
C1166       C  0.62856072  0.70984066  0.83894707    -0.04400
C1167       C  0.66544128  0.73519193  0.84553530    -0.01600
C1168       C  0.66158598  0.76881601  0.86336995     0.03400
C1169       C  0.54173063  0.75946488  0.87921823     0.38100
C1170       C  0.70722658  0.72681203  0.83383945     0.38100
C1171       C  0.69959382  0.79408301  0.87061554     0.36500
C1172       C  0.54939464  0.69319138  0.84308284     0.36500
N1173       N  0.72990024  0.81426668  0.87644911    -0.38300
N1174       N  0.51886451  0.67286248  0.83781280    -0.38300
N1175       N  0.74050620  0.72002615  0.82445948    -0.37800
N1176       N  0.50812513  0.76488607  0.88850791    -0.37800
C1177       C  0.71259541  0.56412002  0.47075071    -0.04400
C1178       C  0.70963348  0.55483263  0.49661445    -0.01600
C1179       C  0.74776688  0.55342428  0.51163427     0.03400
C1180       C  0.78939229  0.56212428  0.50101640    -0.04400
C1181       C  0.79155810  0.57495199  0.47547061    -0.01600
C1182       C  0.75366317  0.57442373  0.46028698     0.03400
C1183       C  0.66732608  0.54569643  0.50766578     0.38100
C1184       C  0.83232974  0.58996866  0.46470303     0.38100
C1185       C  0.75686935  0.58517502  0.43381039     0.36500
C1186       C  0.74364490  0.54517939  0.53833610     0.36500
N1187       N  0.75943170  0.59352906  0.41267973    -0.38300
N1188       N  0.74024121  0.53889276  0.55965811    -0.38300
N1189       N  0.86433762  0.60329858  0.45606792    -0.37800
N1190       N  0.63350646  0.53853561  0.51640943    -0.37800
C1191       C  0.96785558  0.47447348  0.49889855    -0.04400
C1192       C  0.97031408  0.48012121  0.47269567    -0.01600
C1193       C  0.00436286  0.46091682  0.45898236     0.03400
C1194       C  0.03538044  0.43427200  0.47122149    -0.04400
C1195       C  0.03248942  0.42782330  0.49740002    -0.01600
C1196       C  0.99910048  0.44813195  0.51123474     0.03400
C1197       C  0.93631019  0.50356499  0.45950525     0.38100
C1198       C  0.06466227  0.40118485  0.51019716     0.38100
C1199       C  0.99777362  0.44275835  0.53827113     0.36500
C1200       C  0.00629317  0.46755556  0.43205314     0.36500
N1201       N  0.99688177  0.43822569  0.55981780    -0.38300
N1202       N  0.00756278  0.47348691  0.41063279    -0.38300
N1203       N  0.09040584  0.38000935  0.52038196    -0.37800
N1204       N  0.90909910  0.52121632  0.44843605    -0.37800
C1205       C  0.14707329  0.51442830  0.72618953    -0.04400
C1206       C  0.18590590  0.49116252  0.73193255    -0.01600
C1207       C  0.18477639  0.45454748  0.74807926     0.03400
C1208       C  0.14473478  0.43934643  0.75789340    -0.04400
C1209       C  0.10589454  0.46157316  0.75171090    -0.01600
C1210       C  0.10721441  0.49988501  0.73700393     0.03400
C1211       C  0.22745772  0.50393724  0.72110460     0.38100
C1212       C  0.06395399  0.44421513  0.75961356     0.38100
C1213       C  0.06683156  0.52335867  0.73278882     0.36500
C1214       C  0.22467949  0.43063942  0.75312408     0.36500
N1215       N  0.03454242  0.54214714  0.72984294    -0.38300
N1216       N  0.25645495  0.41150731  0.75704488    -0.38300
N1217       N  0.03032637  0.42999922  0.76523013    -0.37800
N1218       N  0.26074245  0.51305437  0.71229202    -0.37800
C1219       C  0.27039504  0.75626410  0.74634534    -0.04400
C1220       C  0.23171728  0.76912365  0.73421361    -0.01600
C1221       C  0.20677124  0.73842564  0.72074528     0.03400
C1222       C  0.22047095  0.69442935  0.71904796    -0.04400
C1223       C  0.25949404  0.68174205  0.73108387    -0.01600
C1224       C  0.28402984  0.71229927  0.74491742     0.03400
C1225       C  0.21801407  0.81428692  0.73507121     0.38100
C1226       C  0.27381664  0.63685687  0.73022056     0.38100
C1227       C  0.32214585  0.69760877  0.75877676     0.36500
C1228       C  0.16742678  0.75297840  0.70824251     0.36500
N1229       N  0.35234235  0.68554241  0.76983174    -0.38300
N1230       N  0.13600585  0.76549988  0.69865601    -0.38300
N1231       N  0.28590007  0.60125510  0.72975137    -0.37800
N1232       N  0.20704539  0.85026658  0.73570349    -0.37800
C1233       C  0.07089036  0.55289039  0.62611190    -0.04400
C1234       C  0.07738299  0.56450043  0.60073123    -0.01600
C1235       C  0.04394464  0.55763745  0.58291691     0.03400
C1236       C  0.00323534  0.53988691  0.59039449    -0.04400
C1237       C  0.99973304  0.52193311  0.61491176    -0.01600
C1238       C  0.03311984  0.52919161  0.63274671     0.03400
C1239       C  0.11751473  0.58561571  0.59296456     0.38100
C1240       C  0.96239878  0.49559618  0.62207772     0.38100
C1241       C  0.02871972  0.51198131  0.65799016     0.36500
C1242       C  0.05208941  0.56795531  0.55674247     0.36500
N1243       N  0.02504583  0.49772201  0.67799103    -0.38300
N1244       N  0.05872458  0.57582934  0.53585056    -0.38300
N1245       N  0.93337644  0.47355153  0.62787630    -0.37800
N1246       N  0.14944272  0.60217940  0.58633878    -0.37800
C1247       C  0.86803251  0.90322922  0.72433541    -0.04400
C1248       C  0.85207799  0.90234749  0.74908061    -0.01600
C1249       C  0.84986102  0.94111065  0.76321139     0.03400
C1250       C  0.86121760  0.98189300  0.75223524    -0.04400
C1251       C  0.87911395  0.98219986  0.72771110    -0.01600
C1252       C  0.88304585  0.94295661  0.71408049     0.03400
C1253       C  0.83670822  0.86155372  0.75979579     0.38100
C1254       C  0.89272892  0.02276184  0.71603362     0.38100
C1255       C  0.90344920  0.94327253  0.68959788     0.36500
C1256       C  0.83750188  0.93838413  0.78942576     0.36500
N1257       N  0.92055501  0.94365712  0.67029215    -0.38300
N1258       N  0.82806378  0.93611797  0.81039253    -0.38300
N1259       N  0.90387273  0.05494379  0.70660614    -0.37800
N1260       N  0.82423533  0.82906173  0.76827378    -0.37800
C1261       C  0.77955630  0.73082982  0.73182277    -0.04400
C1262       C  0.79390825  0.68908030  0.74005003    -0.01600
C1263       C  0.76428228  0.65910771  0.75089710     0.03400
C1264       C  0.72077197  0.67139424  0.75562010    -0.04400
C1265       C  0.70779307  0.71470656  0.75002111    -0.01600
C1266       C  0.73672732  0.74392741  0.73792984     0.03400
C1267       C  0.83939137  0.67659928  0.73813706     0.38100
C1268       C  0.66522921  0.73032541  0.75772135     0.38100
C1269       C  0.72301691  0.78837998  0.73313782     0.36500
C1270       C  0.77852193  0.61508513  0.75650740     0.36500
N1271       N  0.71215868  0.82391310  0.72948586    -0.38300
N1272       N  0.78987017  0.57994718  0.76088302    -0.38300
N1273       N  0.63147497  0.74304780  0.76392193    -0.37800
N1274       N  0.87576846  0.66680027  0.73726537    -0.37800
C1275       C  0.84392711  0.69333278  0.63518784    -0.04400
C1276       C  0.83634774  0.70460508  0.60973184    -0.01600
C1277       C  0.83753034  0.67248010  0.59101926     0.03400
C1278       C  0.84802869  0.62898620  0.59725119    -0.04400
C1279       C  0.85165110  0.61703758  0.62281968    -0.01600
C1280       C  0.85010241  0.64916361  0.64166819     0.03400
C1281       C  0.83024365  0.74974998  0.60227037     0.38100
C1282       C  0.85787468  0.57192131  0.62996043     0.38100
C1283       C  0.85500711  0.63635739  0.66767865     0.36500
C1284       C  0.82812715  0.68441529  0.56517003     0.36500
N1285       N  0.85902127  0.62494184  0.68823784    -0.38300
N1286       N  0.82055623  0.69392562  0.54459525    -0.38300
N1287       N  0.86199437  0.53595923  0.63600916    -0.37800
N1288       N  0.82546165  0.78565666  0.59620848    -0.37800
C1289       C  0.19639946  0.85187037  0.48984703    -0.04400
C1290       C  0.23710096  0.84528272  0.50172366    -0.01600
C1291       C  0.27615278  0.84495838  0.48756684     0.03400
C1292       C  0.27525740  0.85273066  0.46133245    -0.04400
C1293       C  0.23421864  0.86042819  0.44965580    -0.01600
C1294       C  0.19514029  0.85897108  0.46373550     0.03400
C1295       C  0.23885043  0.83898508  0.52869937     0.38100
C1296       C  0.23170012  0.87109483  0.42318125     0.38100
C1297       C  0.15359663  0.86665564  0.45143114     0.36500
C1298       C  0.31732921  0.83879740  0.50047128     0.36500
N1299       N  0.12059141  0.87291840  0.44150360    -0.38300
N1300       N  0.34990159  0.83378974  0.51107641    -0.38300
N1301       N  0.22927020  0.88076276  0.40223646    -0.37800
N1302       N  0.24029665  0.83429541  0.55022685    -0.37800
C1303       C  0.00865357  0.92136736  0.48905002    -0.04400
C1304       C  0.99020919  0.90664551  0.46617288    -0.01600
C1305       C  0.95544721  0.92962214  0.45480856     0.03400
C1306       C  0.93696639  0.96616429  0.46686389    -0.04400
C1307       C  0.95358766  0.97893771  0.49045169    -0.01600
C1308       C  0.99105050  0.95906201  0.50044155     0.03400
C1309       C  0.00844416  0.86935969  0.45335260     0.38100
C1310       C  0.93210356  0.01277043  0.50474096     0.38100
C1311       C  0.01170520  0.97895106  0.52212634     0.36500
C1312       C  0.94062432  0.91672365  0.43004239     0.36500
N1313       N  0.02826623  0.99537907  0.53918358    -0.38300
N1314       N  0.92911466  0.90642097  0.41025152    -0.38300
N1315       N  0.91519426  0.03946679  0.51641163    -0.37800
N1316       N  0.02270189  0.83959977  0.44301477    -0.37800
C1317       C  0.14026032  0.77680533  0.58677838    -0.04400
C1318       C  0.11807342  0.78220340  0.60964009    -0.01600
C1319       C  0.11855585  0.74882285  0.62776292     0.03400
C1320       C  0.14722861  0.71278040  0.62513028    -0.04400
C1321       C  0.17481749  0.71152341  0.60359181    -0.01600
C1322       C  0.16893887  0.74168229  0.58384567     0.03400
C1323       C  0.09260196  0.82119942  0.61415445     0.38100
C1324       C  0.20904038  0.67935114  0.60103805     0.38100
C1325       C  0.19233683  0.73652614  0.56041863     0.36500
C1326       C  0.08721439  0.75141917  0.64806574     0.36500
N1327       N  0.21082648  0.73211216  0.54171234    -0.38300
N1328       N  0.06121637  0.75373770  0.66370914    -0.38300
N1329       N  0.23669213  0.65410838  0.59885724    -0.37800
N1330       N  0.07275034  0.85232863  0.61821921    -0.37800
C1331       C  0.98719832  0.83833846  0.58132315    -0.04400
C1332       C  0.95858041  0.87224520  0.58825065    -0.01600
C1333       C  0.93028709  0.86725221  0.60905853     0.03400
C1334       C  0.93133262  0.82879597  0.62365229    -0.04400
C1335       C  0.95796376  0.79379944  0.61566794    -0.01600
C1336       C  0.98521693  0.79838785  0.59455999     0.03400
C1337       C  0.95638623  0.91167337  0.57339317     0.38100
C1338       C  0.95685131  0.75210372  0.62866004     0.38100
C1339       C  0.01220224  0.76192460  0.58703825     0.36500
C1340       C  0.90026964  0.90184857  0.61535314     0.36500
N1341       N  0.03338419  0.73260818  0.58114642    -0.38300
N1342       N  0.87607081  0.92946107  0.62000946    -0.38300
N1343       N  0.95662833  0.71863189  0.63872307    -0.37800
N1344       N  0.95285479  0.94346098  0.56189631    -0.37800
loop_ 
_geom_bond_atom_site_label_1 
_geom_bond_atom_site_label_2 
_geom_bond_distance 
_geom_bond_site_symmetry_2 
_ccdc_geom_bond_type 
O1           Ni9   1.922       .  S
O1           C11   1.283       .  A
O2           Ni9   1.928       .  S
O2           C12   1.283       .  A
O3           Ni9   1.912       .  S
O3           C13   1.280       .  A
O4           Ni9   1.912       .  S
O4           C14   1.280       .  A
O5          Ni10   1.907       .  S
O5           C14   1.280       .  A
O6          Ni10   1.907       .  S
O6           C13   1.279       .  A
O7          Ni10   1.924       .  S
O7           C12   1.282       .  A
O8          Ni10   1.929       .  S
O8           C11   1.283       .  A
Ni9         Ni10   2.386       .  S
C11        C1331   1.494   1_455  S
C12        C1289   1.492       .  S
C13        C1317   1.474       .  S
C14        C1303   1.496       .  S
O15         Ni23   1.935       .  S
O15          C25   1.286       .  A
O16         Ni23   1.936       .  S
O16          C26   1.284       .  A
O17         Ni23   1.903       .  S
O17          C27   1.277       .  A
O18         Ni23   1.905       .  S
O18          C28   1.279       .  A
O19         Ni24   1.935       .  S
O19          C28   1.285       .  A
O20         Ni24   1.932       .  S
O20          C27   1.286       .  A
O21         Ni24   1.915       .  S
O21          C26   1.279       .  A
O22         Ni24   1.898       .  S
O22          C25   1.276       .  A
Ni23        Ni24   2.384       .  S
C25        C1275   1.489       .  S
C26        C1247   1.488       .  S
C27        C1261   1.503       .  S
C28        C1334   1.495       .  S
O29         Ni37   1.915       .  S
O29          C39   1.282       .  A
O30         Ni37   1.918       .  S
O30          C40   1.282       .  A
O31         Ni37   1.906       .  S
O31          C41   1.278       .  A
O32         Ni37   1.910       .  S
O32          C42   1.279       .  A
O33         Ni38   1.929       .  S
O33          C42   1.283       .  A
O34         Ni38   1.928       .  S
O34          C41   1.284       .  A
O35         Ni38   1.917       .  S
O35          C40   1.281       .  A
O36         Ni38   1.906       .  S
O36          C39   1.278       .  A
Ni37        Ni38   2.380       .  S
C39        C1320   1.504       .  S
C40        C1205   1.504       .  S
C41        C1222   1.490       .  S
C42        C1233   1.488       .  S
O43         Ni51   1.923       .  S
O43          C53   1.284       .  A
O44         Ni51   1.928       .  S
O44          C54   1.283       .  A
O45         Ni51   1.898       .  S
O45          C55   1.278       .  A
O46         Ni51   1.904       .  S
O46          C56   1.278       .  A
O47         Ni52   1.928       .  S
O47          C56   1.284       .  A
O48         Ni52   1.929       .  S
O48          C55   1.284       .  A
O49         Ni52   1.925       .  S
O49          C54   1.283       .  A
O50         Ni52   1.915       .  S
O50          C53   1.280       .  A
Ni51        Ni52   2.383       .  S
C53        C1236   1.502   1_655  S
C54        C1180   1.504       .  S
C55        C1278   1.490       .  S
C56        C1191   1.483       .  S
O57         Ni65   1.912       .  S
O57          C67   1.281       .  A
O58         Ni65   1.924       .  S
O58          C68   1.282       .  A
O59         Ni65   1.910       .  S
O59          C69   1.281       .  A
O60         Ni65   1.910       .  S
O60          C70   1.280       .  A
O61         Ni66   1.923       .  S
O61          C70   1.283       .  A
O62         Ni66   1.922       .  S
O62          C69   1.282       .  A
O63         Ni66   1.927       .  S
O63          C68   1.283       .  A
O64         Ni66   1.910       .  S
O64          C67   1.279       .  A
Ni65        Ni66   2.383       .  S
C67        C1166   1.477       .  S
C68        C1135   1.520       .  S
C69        C1149   1.491       .  S
C70        C1264   1.495       .  S
O71         Ni79   1.938       .  S
O71          C81   1.287       .  A
O72         Ni79   1.936       .  S
O72          C82   1.286       .  A
O73         Ni79   1.889       .  S
O73          C83   1.274       .  A
O74         Ni79   1.885       .  S
O74          C84   1.274       .  A
O75         Ni80   1.933       .  S
O75          C84   1.285       .  A
O76         Ni80   1.926       .  S
O76          C83   1.284       .  A
O77         Ni80   1.916       .  S
O77          C82   1.280       .  A
O78         Ni80   1.899       .  S
O78          C81   1.276       .  A
Ni79        Ni80   2.383       .  S
C81        C1152   1.503       .  S
C82        C1096   1.510       .  S
C83        C1107   1.480       .  S
C84        C1121   1.478       .  S
O85         Ni93   1.907       .  S
O85          C95   1.281       .  A
O86         Ni93   1.914       .  S
O86          C96   1.280       .  A
O87         Ni93   1.903       .  S
O87          C97   1.279       .  A
O88         Ni93   1.899       .  S
O88          C98   1.277       .  A
O89         Ni94   1.922       .  S
O89          C98   1.284       .  A
O90         Ni94   1.924       .  S
O90          C97   1.281       .  A
O91         Ni94   1.916       .  S
O91          C96   1.282       .  A
O92         Ni94   1.904       .  S
O92          C95   1.278       .  A
Ni93        Ni94   2.388       .  S
C95        C1124   1.472       .  S
C96        C1065   1.503       .  S
C97        C1082   1.480       .  S
C98        C1219   1.482       .  S
O99        Ni107   1.934       .  S
O99         C109   1.286       .  A
O100       Ni107   1.935       .  S
O100        C110   1.285       .  A
O101       Ni107   1.889       .  S
O101        C111   1.275       .  A
O102       Ni107   1.891       .  S
O102        C112   1.276       .  A
O103       Ni108   1.930       .  S
O103        C112   1.284       .  A
O104       Ni108   1.924       .  S
O104        C111   1.284       .  A
O105       Ni108   1.902       .  S
O105        C110   1.278       .  A
O106       Ni108   1.893       .  S
O106        C109   1.275       .  A
Ni107      Ni108   2.385       .  S
C109       C1079   1.502       .  S
C110       C1037   1.491       .  S
C111       C1051   1.480       .  S
C112       C1163   1.480       .  S
O113       Ni121   1.936       .  S
O113        C123   1.286       .  A
O114       Ni121   1.935       .  S
O114        C124   1.285       .  A
O115       Ni121   1.893       .  S
O115        C125   1.276       .  A
O116       Ni121   1.890       .  S
O116        C126   1.275       .  A
O117       Ni122   1.925       .  S
O117        C126   1.284       .  A
O118       Ni122   1.932       .  S
O118        C125   1.285       .  A
O119       Ni122   1.904       .  S
O119        C124   1.278       .  A
O120       Ni122   1.893       .  S
O120        C123   1.275       .  A
Ni121      Ni122   2.391       .  S
C123       C1023   1.481       .  S
C124        C995   1.487   1_554  S
C125       C1009   1.483       .  S
C126       C1110   1.477   1_554  S
O127       Ni135   1.922       .  S
O127        C137   1.284       .  A
O128       Ni135   1.932       .  S
O128        C138   1.284       .  A
O129       Ni135   1.895       .  S
O129        C139   1.276       .  A
O130       Ni135   1.893       .  S
O130        C140   1.276       .  A
O131       Ni136   1.936       .  S
O131        C140   1.285       .  A
O132       Ni136   1.928       .  S
O132        C139   1.284       .  A
O133       Ni136   1.913       .  S
O133        C138   1.280       .  A
O134       Ni136   1.899       .  S
O134        C137   1.277       .  A
Ni135      Ni136   2.384       .  S
C137        C981   1.488       .  S
C138        C953   1.494       .  S
C139        C967   1.479       .  S
C140       C1026   1.505       .  S
O141       Ni149   1.915       .  S
O141        C151   1.282       .  A
O142       Ni149   1.926       .  S
O142        C152   1.283       .  A
O143       Ni149   1.903       .  S
O143        C153   1.277       .  A
O144       Ni149   1.909       .  S
O144        C154   1.280       .  A
O145       Ni150   1.923       .  S
O145        C154   1.283       .  A
O146       Ni150   1.919       .  S
O146        C153   1.282       .  A
O147       Ni150   1.922       .  S
O147        C152   1.282       .  A
O148       Ni150   1.912       .  S
O148        C151   1.279       .  A
Ni149      Ni150   2.389       .  S
C151       C1012   1.483       .  S
C152        C914   1.495       .  S
C153        C928   1.476       .  S
C154        C942   1.486       .  S
O155       Ni163   1.927       .  S
O155        C165   1.285       .  A
O156       Ni163   1.931       .  S
O156        C166   1.284       .  A
O157       Ni163   1.892       .  S
O157        C167   1.277       .  A
O158       Ni163   1.896       .  S
O158        C168   1.275       .  A
O159       Ni164   1.923       .  S
O159        C168   1.285       .  A
O160       Ni164   1.926       .  S
O160        C167   1.283       .  A
O161       Ni164   1.914       .  S
O161        C166   1.279       .  A
O162       Ni164   1.911       .  S
O162        C165   1.279       .  A
Ni163      Ni164   2.387       .  S
C165        C939   1.502       .  S
C166        C897   1.485   1_554  S
C167        C984   1.481       .  S
C168       C1054   1.484   1_544  S
O169       Ni177   1.913       .  S
O169        C179   1.282       .  A
O170       Ni177   1.920       .  S
O170        C180   1.282       .  A
O171       Ni177   1.908       .  S
O171        C181   1.279       .  A
O172       Ni177   1.903       .  S
O172        C182   1.278       .  A
O173       Ni178   1.921       .  S
O173        C182   1.282       .  A
O174       Ni178   1.921       .  S
O174        C181   1.281       .  A
O175       Ni178   1.921       .  S
O175        C180   1.282       .  A
O176       Ni178   1.911       .  S
O176        C179   1.279       .  A
Ni177      Ni178   2.387       .  S
C179        C883   1.482       .  S
C180        C855   1.508       .  S
C181        C869   1.479       .  S
C182        C925   1.478       .  S
O183       Ni191   1.930       .  S
O183        C193   1.286       .  A
O184       Ni191   1.932       .  S
O184        C194   1.284       .  A
O185       Ni191   1.902       .  S
O185        C195   1.277       .  A
O186       Ni191   1.906       .  S
O186        C196   1.278       .  A
O187       Ni192   1.935       .  S
O187        C196   1.284       .  A
O188       Ni192   1.928       .  S
O188        C195   1.284       .  A
O189       Ni192   1.917       .  S
O189        C194   1.281       .  A
O190       Ni192   1.901       .  S
O190        C193   1.277       .  A
Ni191      Ni192   2.383       .  S
C193        C872   1.509   1_455  S
C194        C827   1.500       .  S
C195       C1194   1.482       .  S
C196        C841   1.485       .  S
O197       Ni205   1.930       .  S
O197        C207   1.285       .  A
O198       Ni205   1.930       .  S
O198        C208   1.284       .  A
O199       Ni205   1.899       .  S
O199        C209   1.278       .  A
O200       Ni205   1.906       .  S
O200        C210   1.278       .  A
O201       Ni206   1.920       .  S
O201        C210   1.282       .  A
O202       Ni206   1.927       .  S
O202        C209   1.283       .  A
O203       Ni206   1.913       .  S
O203        C208   1.281       .  A
O204       Ni206   1.907       .  S
O204        C207   1.278       .  A
Ni205      Ni206   2.382       .  S
C207        C844   1.511       .  S
C208        C802   1.507   1_545  S
C209        C813   1.481       .  S
C210        C970   1.481       .  S
O211       Ni219   1.919       .  S
O211        C221   1.284       .  A
O212       Ni219   1.924       .  S
O212        C222   1.283       .  A
O213       Ni219   1.888       .  S
O213        C223   1.276   1_545  A
O214       Ni219   1.890       .  S
O214        C224   1.275       .  A
O215       Ni220   1.937       .  S
O215        C224   1.285       .  A
O216       Ni220   1.927   1_565  S
O216        C223   1.284       .  A
O217       Ni220   1.921       .  S
O217        C222   1.282       .  A
O218       Ni220   1.908       .  S
O218        C221   1.278       .  A
Ni219      Ni220   2.382       .  S
C221        C816   1.498       .  S
C222        C788   1.508       .  S
C223       C1306   1.490       .  S
C224        C886   1.483       .  S
O225       Ni233   1.930       .  S
O225        C235   1.285       .  A
O226       Ni233   1.934       .  S
O226        C236   1.284       .  A
O227       Ni233   1.900       .  S
O227        C237   1.278       .  A
O228       Ni233   1.903       .  S
O228        C238   1.278       .  A
O229       Ni234   1.924       .  S
O229        C238   1.283       .  A
O230       Ni234   1.934       .  S
O230        C237   1.285       .  A
O231       Ni234   1.914       .  S
O231        C236   1.279       .  A
O232       Ni234   1.899       .  S
O232        C235   1.277       .  A
Ni233      Ni234   2.387       .  S
C235        C774   1.494       .  S
C236       C1138   1.489       .  S
C237        C757   1.490       .  S
C238        C743   1.486       .  S
O239       Ni247   1.915       .  S
O239        C249   1.282       .  A
O240       Ni247   1.923       .  S
O240        C250   1.283       .  A
O241       Ni247   1.903       .  S
O241        C251   1.277       .  A
O242       Ni247   1.903       .  S
O242        C252   1.280       .  A
O243       Ni248   1.914       .  S
O243        C252   1.280       .  A
O244       Ni248   1.915       .  S
O244        C251   1.282       .  A
O245       Ni248   1.925       .  S
O245        C250   1.283       .  A
O246       Ni248   1.919       .  S
O246        C249   1.281       .  A
Ni247      Ni248   2.386       .  S
C249        C760   1.489       .  S
C250        C830   1.513       .  S
C251        C715   1.476       .  S
C252        C732   1.478       .  S
O253       Ni261   1.928       .  S
O253        C263   1.285       .  A
O254       Ni261   1.927       .  S
O254        C264   1.284       .  A
O255       Ni261   1.888       .  S
O255        C265   1.275       .  A
O256       Ni261   1.884       .  S
O256        C266   1.274       .  A
O257       Ni262   1.928       .  S
O257        C266   1.285       .  A
O258       Ni262   1.939       .  S
O258        C265   1.286       .  A
O259       Ni262   1.899       .  S
O259        C264   1.277       .  A
O260       Ni262   1.889       .  S
O260        C263   1.274       .  A
Ni261      Ni262   2.386       .  S
C263        C729   1.490       .  S
C264       C1068   1.482       .  S
C265        C701   1.484       .  S
C266        C690   1.484       .  S
O267       Ni275   1.905       .  S
O267        C277   1.280       .  A
O268       Ni275   1.919       .  S
O268        C278   1.280       .  A
O269       Ni275   1.904       .  S
O269        C279   1.278       .  A
O270       Ni275   1.908       .  S
O270        C280   1.281       .  A
O271       Ni276   1.919       .  S
O271        C280   1.281       .  A
O272       Ni276   1.917       .  S
O272        C279   1.283       .  A
O273       Ni276   1.923       .  S
O273        C278   1.281       .  A
O274       Ni276   1.922       .  S
O274        C277   1.281       .  A
Ni275      Ni276   2.385       .  S
C277        C704   1.482       .  S
C278        C785   1.484       .  S
C279        C673   1.505   1_545  S
C280        C771   1.490       .  S
O281       Ni289   1.905       .  S
O281        C291   1.279       .  A
O282       Ni289   1.908       .  S
O282        C292   1.279       .  A
O283       Ni289   1.900       .  S
O283        C293   1.279       .  A
O284       Ni289   1.911       .  S
O284        C294   1.280       .  A
O285       Ni290   1.923       .  S
O285        C294   1.281       .  A
O286       Ni290   1.915       .  S
O286        C293   1.281       .  A
O287       Ni290   1.925       .  S
O287        C292   1.283       .  A
O288       Ni290   1.921       .  S
O288        C291   1.282       .  A
Ni289      Ni290   2.387       .  S
C291        C659   1.486       .  S
C292       C1208   1.489       .  S
C293        C687   1.490       .  S
C294        C645   1.478       .  S
O295       Ni303   1.927       .  S
O295        C305   1.284       .  A
O296       Ni303   1.927       .  S
O296        C306   1.284       .  A
O297       Ni303   1.905       .  S
O297        C307   1.278       .  A
O298       Ni303   1.902       .  S
O298        C308   1.277       .  A
O299       Ni304   1.923       .  S
O299        C308   1.283       .  A
O300       Ni304   1.918       .  S
O300        C307   1.281       .  A
O301       Ni304   1.915       .  S
O301        C306   1.281       .  A
O302       Ni304   1.904       .  S
O302        C305   1.278       .  A
Ni303      Ni304   2.380       .  S
C305        C648   1.510       .  S
C306        C998   1.510       .  S
C307        C634   1.476       .  S
C308        C617   1.488       .  S
O309       Ni317   1.919       .  S
O309        C319   1.283       .  A
O310       Ni317   1.928       .  S
O310        C320   1.284       .  A
O311       Ni317   1.904       .  S
O311        C321   1.278       .  A
O312       Ni317   1.893       .  S
O312        C322   1.278       .  A
O313       Ni318   1.927       .  S
O313        C322   1.282       .  A
O314       Ni318   1.922       .  S
O314        C321   1.283       .  A
O315       Ni318   1.920       .  S
O315        C320   1.283       .  A
O316       Ni318   1.909       .  S
O316        C319   1.279       .  A
Ni317      Ni318   2.383       .  S
C319        C631   1.502       .  S
C320       C1250   1.505   1_545  S
C321        C746   1.488       .  S
C322        C603   1.480       .  S
O323       Ni331   1.937       .  S
O323        C333   1.288       .  A
O324       Ni331   1.939       .  S
O324        C334   1.287       .  A
O325       Ni331   1.887       .  S
O325        C335   1.274       .  A
O326       Ni331   1.887       .  S
O326        C336   1.274       .  A
O327       Ni332   1.926   1_565  S
O327        C336   1.284   1_565  A
O328       Ni332   1.937       .  S
O328        C335   1.286       .  A
O329       Ni332   1.899       .  S
O329        C334   1.277       .  A
O330       Ni332   1.883       .  S
O330        C333   1.273       .  A
Ni331      Ni332   2.386       .  S
C333        C606   1.490   1_455  S
C334        C900   1.503       .  S
C335        C662   1.478       .  S
C336        C589   1.476   1_545  S
O337       Ni345   1.922       .  S
O337        C347   1.283       .  A
O338       Ni345   1.924       .  S
O338        C348   1.283       .  A
O339       Ni345   1.907       .  S
O339        C349   1.279       .  A
O340       Ni345   1.912       .  S
O340        C350   1.280       .  A
O341       Ni346   1.920       .  S
O341        C350   1.281       .  A
O342       Ni346   1.917       .  S
O342        C349   1.283       .  A
O343       Ni346   1.920       .  S
O343        C348   1.282       .  A
O344       Ni346   1.906       .  S
O344        C347   1.279       .  A
Ni345      Ni346   2.385       .  S
C347        C575   1.484       .  S
C348        C956   1.508       .  S
C349        C547   1.491       .  S
C350        C561   1.481       .  S
O351       Ni359   1.927       .  S
O351        C361   1.284       .  A
O352       Ni359   1.928       .  S
O352        C362   1.283       .  A
O353       Ni359   1.898       .  S
O353        C363   1.277       .  A
O354       Ni359   1.897       .  S
O354        C364   1.277       .  A
O355       Ni360   1.925       .  S
O355        C364   1.283       .  A
O356       Ni360   1.922       .  S
O356        C363   1.282       .  A
O357       Ni360   1.919       .  S
O357        C362   1.281       .  A
O358       Ni360   1.911       .  S
O358        C361   1.279       .  A
Ni359      Ni360   2.385       .  S
C361        C564   1.515       .  S
C362       C1177   1.489       .  S
C363        C533   1.476       .  S
C364        C718   1.479       .  S
O365       Ni373   1.932       .  S
O365        C375   1.286       .  A
O366       Ni373   1.942       .  S
O366        C376   1.287       .  A
O367       Ni373   1.897       .  S
O367        C377   1.276       .  A
O368       Ni373   1.890       .  S
O368        C378   1.275       .  A
O369       Ni374   1.933       .  S
O369        C378   1.286       .  A
O370       Ni374   1.941       .  S
O370        C377   1.286       .  A
O371       Ni374   1.913       .  S
O371        C376   1.279       .  A
O372       Ni374   1.901       .  S
O372        C375   1.277       .  A
Ni373      Ni374   2.382       .  S
C375        C519   1.491       .  S
C376       C1292   1.507       .  S
C377        C578   1.487       .  S
C378        C676   1.505       .  S
O379       Ni387   1.908       .  S
O379        C389   1.280       .  A
O380       Ni387   1.920       .  S
O380        C390   1.282       .  A
O381       Ni387   1.908       .  S
O381        C391   1.279       .  A
O382       Ni387   1.903       .  S
O382        C392   1.279       .  A
O383       Ni388   1.929       .  S
O383        C392   1.283       .  A
O384       Ni388   1.927       .  S
O384        C391   1.282       .  A
O385       Ni388   1.931       .  S
O385        C390   1.284       .  A
O386       Ni388   1.919       .  S
O386        C389   1.282       .  A
Ni387      Ni388   2.384       .  S
C389        C536   1.502       .  S
C390        C911   1.498       .  S
C391        C505   1.476       .  S
C392        C522   1.495       .  S
O393       Ni401   1.916       .  S
O393        C403   1.282       .  A
O394       Ni401   1.920       .  S
O394        C404   1.280       .  A
O395       Ni401   1.896       .  S
O395        C405   1.279       .  A
O396       Ni401   1.904       .  S
O396        C406   1.278       .  A
O397       Ni402   1.923       .  S
O397        C406   1.284       .  A
O398       Ni402   1.924       .  S
O398        C405   1.282       .  A
O399       Ni402   1.920       .  S
O399        C404   1.281       .  A
O400       Ni402   1.914       .  S
O400        C403   1.280       .  A
Ni401      Ni402   2.381       .  S
C403        C491   1.503       .  S
C404        C799   1.481       .  S
C405        C477   1.494       .  S
C406        C550   1.498       .  S
O407       Ni415   1.934       .  S
O407        C417   1.286       .  A
O408       Ni415   1.935       .  S
O408        C418   1.285       .  A
O409       Ni415   1.886       .  S
O409        C419   1.274       .  A
O410       Ni415   1.892       .  S
O410        C420   1.275       .  A
O411       Ni416   1.929       .  S
O411        C420   1.285       .  A
O412       Ni416   1.927       .  S
O412        C419   1.284       .  A
O413       Ni416   1.902       .  S
O413        C418   1.278       .  A
O414       Ni416   1.887       .  S
O414        C417   1.274       .  A
Ni415      Ni416   2.389       .  S
C417        C480   1.479       .  S
C418       C1040   1.495   1_554  S
C419        C592   1.475   1_554  S
C420        C463   1.482       .  S
O421       Ni429   1.932       .  S
O421        C431   1.285       .  A
O422       Ni429   1.932       .  S
O422        C432   1.284       .  A
O423       Ni429   1.908       .  S
O423        C433   1.278       .  A
O424       Ni429   1.906       .  S
O424        C434   1.278       .  A
O425       Ni430   1.919       .  S
O425        C434   1.282       .  A
O426       Ni430   1.919       .  S
O426        C433   1.283       .  A
O427       Ni430   1.916       .  S
O427        C432   1.280       .  A
O428       Ni430   1.907       .  S
O428        C431   1.278       .  A
Ni429      Ni430   2.383       .  S
C431        C449   1.512   1_455  S
C432       C1093   1.489   1_554  S
C433        C620   1.492   1_454  S
C434        C494   1.480       .  S
O435       Ni443   1.913       .  S
O435        C445   1.283       .  A
O436       Ni443   1.921       .  S
O436        C446   1.282       .  A
O437       Ni443   1.910       .  S
O437        C447   1.279       .  A
O438       Ni443   1.905       .  S
O438        C448   1.276       .  A
O439       Ni444   1.925       .  S
O439        C448   1.283       .  A
O440       Ni444   1.924       .  S
O440        C447   1.282       .  A
O441       Ni444   1.921       .  S
O441        C446   1.282       .  A
O442       Ni444   1.909       .  S
O442        C445   1.279       .  A
Ni443      Ni444   2.388       .  S
C445        C466   1.486       .  S
C446        C858   1.502       .  S
C447        C452   1.481       .  S
C448        C508   1.474       .  S
C449        C450   1.430       .  A
C449        C454   1.424       .  A
C450        C451   1.412       .  A
C450        C455   1.452       .  S
C451        C452   1.403       .  A
C451        C458   1.451       .  S
C452        C453   1.409       .  A
C453        C454   1.413       .  A
C453        C456   1.452       .  S
C454        C457   1.451       .  S
C455        N462   1.158   1_655  T
C456        N461   1.157       .  T
C457        N459   1.157       .  T
C458        N460   1.157       .  T
C463        C464   1.419       .  A
C463        C468   1.409       .  A
C464        C465   1.403       .  A
C464        C469   1.454       .  S
C465        C466   1.414       .  A
C465        C472   1.456       .  S
C466        C467   1.419       .  A
C467        C468   1.414       .  A
C467        C470   1.450       .  S
C468        C471   1.450       .  S
C469        N476   1.157       .  T
C470        N475   1.157       .  T
C471        N473   1.157       .  T
C472        N474   1.158       .  T
C477        C478   1.421       .  A
C477        C482   1.418       .  A
C478        C479   1.414       .  A
C478        C483   1.449       .  S
C479        C480   1.408   1_455  A
C479        C486   1.451       .  S
C480        C481   1.414       .  A
C481        C482   1.404   1_655  A
C481        C484   1.455       .  S
C482        C485   1.454   1_455  S
C483        N490   1.157       .  T
C484        N489   1.157       .  T
C485        N487   1.158       .  T
C486        N488   1.157       .  T
C491        C492   1.425       .  A
C491        C496   1.422       .  A
C492        C493   1.412       .  A
C492        C497   1.451       .  S
C493        C494   1.408       .  A
C493        C500   1.453       .  S
C494        C495   1.409       .  A
C495        C496   1.409       .  A
C495        C498   1.452       .  S
C496        C499   1.450       .  S
C497        N504   1.157       .  T
C498        N503   1.157       .  T
C499        N501   1.157       .  T
C500        N502   1.157       .  T
C505        C506   1.405       .  A
C505        C510   1.414       .  A
C506        C507   1.410       .  A
C506        C511   1.450       .  S
C507        C508   1.415       .  A
C507        C514   1.448       .  S
C508        C509   1.405       .  A
C509        C510   1.409       .  A
C509        C512   1.452       .  S
C510        C513   1.446       .  S
C511        N518   1.157       .  T
C512        N517   1.157       .  T
C513        N515   1.156       .  T
C514        N516   1.157       .  T
C519        C520   1.412       .  A
C519        C524   1.417       .  A
C520        C521   1.415       .  A
C520        C525   1.451       .  S
C521        C522   1.419       .  A
C521        C528   1.449       .  S
C522        C523   1.415       .  A
C523        C524   1.409       .  A
C523        C526   1.453       .  S
C524        C527   1.453       .  S
C525        N532   1.157       .  T
C526        N531   1.157       .  T
C527        N529   1.157       .  T
C528        N530   1.157       .  T
C533        C534   1.408       .  A
C533        C538   1.408       .  A
C534        C535   1.408       .  A
C534        C539   1.453       .  S
C535        C536   1.425       .  A
C535        C542   1.453       .  S
C536        C537   1.423       .  A
C537        C538   1.411       .  A
C537        C540   1.450       .  S
C538        C541   1.453       .  S
C539        N546   1.157       .  T
C540        N545   1.157       .  T
C541        N543   1.157       .  T
C542        N544   1.158       .  T
C547        C548   1.420       .  A
C547        C552   1.410       .  A
C548        C549   1.412       .  A
C548        C553   1.453       .  S
C549        C550   1.415       .  A
C549        C556   1.453       .  S
C550        C551   1.422       .  A
C551        C552   1.410       .  A
C551        C554   1.450       .  S
C552        C555   1.452       .  S
C553        N560   1.158       .  T
C554        N559   1.157       .  T
C555        N557   1.157       .  T
C556        N558   1.158       .  T
C561        C562   1.403       .  A
C561        C566   1.408       .  A
C562        C563   1.414       .  A
C562        C567   1.452       .  S
C563        C564   1.431       .  A
C563        C570   1.452       .  S
C564        C565   1.427       .  A
C565        C566   1.411       .  A
C565        C568   1.452       .  S
C566        C569   1.453       .  S
C567        N574   1.157       .  T
C568        N573   1.158       .  T
C569        N571   1.157       .  T
C570        N572   1.158       .  T
C575        C576   1.416       .  A
C575        C580   1.410       .  A
C576        C577   1.414       .  A
C576        C581   1.451       .  S
C577        C578   1.410       .  A
C577        C584   1.447       .  S
C578        C579   1.420       .  A
C579        C580   1.407       .  A
C579        C582   1.452       .  S
C580        C583   1.454       .  S
C581        N588   1.157       .  T
C582        N587   1.157       .  T
C583        N585   1.158       .  T
C584        N586   1.156       .  T
C589        C590   1.411       .  A
C589        C594   1.415       .  A
C590        C591   1.408   1_456  A
C590        C595   1.451   1_566  S
C591        C592   1.414   1_554  A
C591        C598   1.452       .  S
C592        C593   1.411       .  A
C593        C594   1.408   1_655  A
C593        C596   1.452       .  S
C594        C597   1.452       .  S
C595        N602   1.157       .  T
C596        N601   1.157       .  T
C597        N599   1.157       .  T
C598        N600   1.157       .  T
C603        C604   1.413       .  A
C603        C608   1.408       .  A
C604        C605   1.413       .  A
C604        C609   1.449       .  S
C605        C606   1.414       .  A
C605        C612   1.451       .  S
C606        C607   1.422   1_655  A
C607        C608   1.404   1_455  A
C607        C610   1.453       .  S
C608        C611   1.454       .  S
C609        N616   1.157       .  T
C610        N615   1.158       .  T
C611        N613   1.157   1_545  T
C612        N614   1.157       .  T
C617        C618   1.419       .  A
C617        C622   1.409       .  A
C618        C619   1.409   1_655  A
C618        C623   1.452       .  S
C619        C620   1.412   1_455  A
C619        C626   1.453       .  S
C620        C621   1.422       .  A
C621        C622   1.412       .  A
C621        C624   1.450       .  S
C622        C625   1.452       .  S
C623        N630   1.157   1_655  T
C624        N629   1.157       .  T
C625        N627   1.157       .  T
C626        N628   1.157       .  T
C631        C632   1.426       .  A
C631        C636   1.423       .  A
C632        C633   1.410       .  A
C632        C637   1.451       .  S
C633        C634   1.405       .  A
C633        C640   1.452       .  S
C634        C635   1.408       .  A
C635        C636   1.409       .  A
C635        C638   1.453       .  S
C636        C639   1.452       .  S
C637        N644   1.157       .  T
C638        N643   1.157       .  T
C639        N641   1.158       .  T
C640        N642   1.157       .  T
C645        C646   1.406       .  A
C645        C650   1.401       .  A
C646        C647   1.411       .  A
C646        C651   1.451       .  S
C647        C648   1.426   1_455  A
C647        C654   1.451       .  S
C648        C649   1.431       .  A
C649        C650   1.411   1_655  A
C649        C652   1.452       .  S
C650        C653   1.450       .  S
C651        N658   1.157       .  T
C652        N657   1.158       .  T
C653        N655   1.157       .  T
C654        N656   1.158       .  T
C659        C660   1.417       .  A
C659        C664   1.415       .  A
C660        C661   1.413       .  A
C660        C665   1.447       .  S
C661        C662   1.406       .  A
C661        C668   1.449       .  S
C662        C663   1.416       .  A
C663        C664   1.404       .  A
C663        C666   1.453       .  S
C664        C667   1.455       .  S
C665        N672   1.156       .  T
C666        N671   1.157       .  T
C667        N669   1.158       .  T
C668        N670   1.157       .  T
C673        C674   1.423   1_565  A
C673        C678   1.420       .  A
C674        C675   1.415   1_545  A
C674        C679   1.453       .  S
C675        C676   1.418       .  A
C675        C682   1.453   1_565  S
C676        C677   1.422       .  A
C677        C678   1.410       .  A
C677        C680   1.454       .  S
C678        C681   1.455       .  S
C679        N686   1.158       .  T
C680        N685   1.158       .  T
C681        N683   1.157       .  T
C682        N684   1.157       .  T
C687        C688   1.416       .  A
C687        C692   1.416       .  A
C688        C689   1.407       .  A
C688        C693   1.451       .  S
C689        C690   1.415       .  A
C689        C696   1.454       .  S
C690        C691   1.415       .  A
C691        C692   1.409       .  A
C691        C694   1.452       .  S
C692        C695   1.453       .  S
C693        N700   1.158       .  T
C694        N699   1.158       .  T
C695        N697   1.157       .  T
C696        N698   1.157       .  T
C701        C702   1.411       .  A
C701        C706   1.418       .  A
C702        C703   1.418       .  A
C702        C707   1.449       .  S
C703        C704   1.416       .  A
C703        C710   1.449   1_545  S
C704        C705   1.411       .  A
C705        C706   1.401       .  A
C705        C708   1.455       .  S
C706        C709   1.453       .  S
C707        N714   1.157   1_545  T
C708        N713   1.157       .  T
C709        N711   1.157       .  T
C710        N712   1.157       .  T
C715        C716   1.417       .  A
C715        C720   1.406       .  A
C716        C717   1.412       .  A
C716        C721   1.451       .  S
C717        C718   1.410       .  A
C717        C724   1.451       .  S
C718        C719   1.416       .  A
C719        C720   1.404       .  A
C719        C722   1.450       .  S
C720        C723   1.452       .  S
C721        N728   1.157       .  T
C722        N727   1.156       .  T
C723        N725   1.157       .  T
C724        N726   1.157       .  T
C729        C730   1.422       .  A
C729        C734   1.416       .  A
C730        C731   1.405       .  A
C730        C735   1.453       .  S
C731        C732   1.406       .  A
C731        C738   1.451       .  S
C732        C733   1.414       .  A
C733        C734   1.411       .  A
C733        C736   1.452       .  S
C734        C737   1.451       .  S
C735        N742   1.157       .  T
C736        N741   1.157       .  T
C737        N739   1.157       .  T
C738        N740   1.157       .  T
C743        C744   1.412       .  A
C743        C748   1.416       .  A
C744        C745   1.411       .  A
C744        C749   1.453       .  S
C745        C746   1.419       .  A
C745        C752   1.452       .  S
C746        C747   1.413       .  A
C747        C748   1.411       .  A
C747        C750   1.451       .  S
C748        C751   1.452       .  S
C749        N756   1.157       .  T
C750        N755   1.157       .  T
C751        N753   1.158       .  T
C752        N754   1.158       .  T
C757        C758   1.412       .  A
C757        C762   1.419       .  A
C758        C759   1.417       .  A
C758        C763   1.449       .  S
C759        C760   1.416       .  A
C759        C766   1.449       .  S
C760        C761   1.413       .  A
C761        C762   1.406       .  A
C761        C764   1.454       .  S
C762        C765   1.453       .  S
C763        N770   1.157       .  T
C764        N769   1.157       .  T
C765        N767   1.157       .  T
C766        N768   1.157       .  T
C771        C772   1.419       .  A
C771        C776   1.411       .  A
C772        C773   1.414       .  A
C772        C777   1.452       .  S
C773        C774   1.415       .  A
C773        C780   1.452       .  S
C774        C775   1.421       .  A
C775        C776   1.408       .  A
C775        C778   1.453       .  S
C776        C779   1.453       .  S
C777        N784   1.158       .  T
C778        N783   1.157       .  T
C779        N781   1.157       .  T
C780        N782   1.157       .  T
C785        C786   1.408       .  A
C785        C790   1.408       .  A
C786        C787   1.414       .  A
C786        C791   1.452       .  S
C787        C788   1.424       .  A
C787        C794   1.451       .  S
C788        C789   1.424       .  A
C789        C790   1.415       .  A
C789        C792   1.450       .  S
C790        C793   1.452       .  S
C791        N798   1.157       .  T
C792        N797   1.157       .  T
C793        N795   1.157       .  T
C794        N796   1.157       .  T
C799        C800   1.405       .  A
C799        C804   1.409       .  A
C800        C801   1.413       .  A
C800        C805   1.453       .  S
C801        C802   1.425       .  A
C801        C808   1.451       .  S
C802        C803   1.422       .  A
C803        C804   1.415       .  A
C803        C806   1.451   1_565  S
C804        C807   1.452       .  S
C805        N812   1.157       .  T
C806        N811   1.157       .  T
C807        N809   1.157       .  T
C808        N810   1.158       .  T
C813        C814   1.410       .  A
C813        C818   1.409       .  A
C814        C815   1.411       .  A
C814        C819   1.450       .  S
C815        C816   1.419   1_455  A
C815        C822   1.452       .  S
C816        C817   1.422       .  A
C817        C818   1.410   1_655  A
C817        C820   1.452       .  S
C818        C821   1.453       .  S
C819        N826   1.157       .  T
C820        N825   1.158   1_545  T
C821        N823   1.157   1_545  T
C822        N824   1.157       .  T
C827        C828   1.412       .  A
C827        C832   1.416       .  A
C828        C829   1.416       .  A
C828        C833   1.451       .  S
C829        C830   1.425       .  A
C829        C836   1.451       .  S
C830        C831   1.423       .  A
C831        C832   1.416       .  A
C831        C834   1.452       .  S
C832        C835   1.453       .  S
C833        N840   1.157       .  T
C834        N839   1.158       .  T
C835        N837   1.157       .  T
C836        N838   1.158       .  T
C841        C842   1.410       .  A
C841        C846   1.404       .  A
C842        C843   1.415       .  A
C842        C847   1.449       .  S
C843        C844   1.424       .  A
C843        C850   1.452       .  S
C844        C845   1.428       .  A
C845        C846   1.412       .  A
C845        C848   1.452       .  S
C846        C849   1.449       .  S
C847        N854   1.156       .  T
C848        N853   1.158       .  T
C849        N851   1.156       .  T
C850        N852   1.158       .  T
C855        C856   1.421       .  A
C855        C860   1.422       .  A
C856        C857   1.415       .  A
C856        C861   1.452       .  S
C857        C858   1.417       .  A
C857        C864   1.453       .  S
C858        C859   1.417       .  A
C859        C860   1.415       .  A
C859        C862   1.452       .  S
C860        C863   1.453       .  S
C861        N868   1.157       .  T
C862        N867   1.158       .  T
C863        N865   1.158       .  T
C864        N866   1.157       .  T
C869        C870   1.404       .  A
C869        C874   1.410       .  A
C870        C871   1.410       .  A
C870        C875   1.452       .  S
C871        C872   1.429       .  A
C871        C878   1.452   1_655  S
C872        C873   1.423       .  A
C873        C874   1.412       .  A
C873        C876   1.451       .  S
C874        C877   1.452       .  S
C875        N882   1.157       .  T
C876        N881   1.158       .  T
C877        N879   1.157       .  T
C878        N880   1.158       .  T
C883        C884   1.410       .  A
C883        C888   1.417       .  A
C884        C885   1.403       .  A
C884        C889   1.455       .  S
C885        C886   1.419       .  A
C885        C892   1.453       .  S
C886        C887   1.410       .  A
C887        C888   1.415       .  A
C887        C890   1.449       .  S
C888        C891   1.451       .  S
C889        N896   1.158       .  T
C890        N895   1.157       .  T
C891        N893   1.157       .  T
C892        N894   1.157       .  T
C897        C898   1.406       .  A
C897        C902   1.412   1_556  A
C898        C899   1.411       .  A
C898        C903   1.450       .  S
C899        C900   1.425       .  A
C899        C906   1.452       .  S
C900        C901   1.418       .  A
C901        C902   1.416   1_556  A
C901        C904   1.450   1_556  S
C902        C905   1.451       .  S
C903        N910   1.156       .  T
C904        N909   1.157       .  T
C905        N907   1.157       .  T
C906        N908   1.157       .  T
C911        C912   1.416       .  A
C911        C916   1.417       .  A
C912        C913   1.415       .  A
C912        C917   1.451       .  S
C913        C914   1.415   1_565  A
C913        C920   1.451       .  S
C914        C915   1.415       .  A
C915        C916   1.416   1_545  A
C915        C918   1.451       .  S
C916        C919   1.451       .  S
C917        N924   1.157       .  T
C918        N923   1.157       .  T
C919        N921   1.158       .  T
C920        N922   1.158       .  T
C925        C926   1.409       .  A
C925        C930   1.418       .  A
C926        C927   1.410       .  A
C926        C931   1.451       .  S
C927        C928   1.416       .  A
C927        C934   1.452       .  S
C928        C929   1.407       .  A
C929        C930   1.408       .  A
C929        C932   1.452       .  S
C930        C933   1.452       .  S
C931        N938   1.157       .  T
C932        N937   1.157       .  T
C933        N935   1.157       .  T
C934        N936   1.157       .  T
C939        C940   1.418       .  A
C939        C944   1.422       .  A
C940        C941   1.412       .  A
C940        C945   1.452       .  S
C941        C942   1.415       .  A
C941        C948   1.452       .  S
C942        C943   1.409       .  A
C943        C944   1.413       .  A
C943        C946   1.452       .  S
C944        C947   1.450       .  S
C945        N952   1.157       .  T
C946        N951   1.157       .  T
C947        N949   1.157   1_545  T
C948        N950   1.157       .  T
C953        C954   1.413       .  A
C953        C958   1.412       .  A
C954        C955   1.414       .  A
C954        C959   1.453       .  S
C955        C956   1.422       .  A
C955        C962   1.451       .  S
C956        C957   1.422       .  A
C957        C958   1.415       .  A
C957        C960   1.452       .  S
C958        C961   1.449       .  S
C959        N966   1.157       .  T
C960        N965   1.158       .  T
C961        N963   1.156       .  T
C962        N964   1.157       .  T
C967        C968   1.415       .  A
C967        C972   1.411       .  A
C968        C969   1.411       .  A
C968        C973   1.452       .  S
C969        C970   1.412       .  A
C969        C976   1.451       .  S
C970        C971   1.415       .  A
C971        C972   1.408       .  A
C971        C974   1.452       .  S
C972        C975   1.452       .  S
C973        N980   1.157       .  T
C974        N979   1.157       .  T
C975        N977   1.157       .  T
C976        N978   1.157       .  T
C981        C982   1.418       .  A
C981        C986   1.415       .  A
C982        C983   1.406       .  A
C982        C987   1.451       .  S
C983        C984   1.412       .  A
C983        C990   1.454       .  S
C984        C985   1.412       .  A
C985        C986   1.410       .  A
C985        C988   1.448       .  S
C986        C989   1.452       .  S
C987        N994   1.157       .  T
C988        N993   1.156       .  T
C989        N991   1.157       .  T
C990        N992   1.157       .  T
C995        C996   1.409       .  A
C995       C1000   1.410       .  A
C996        C997   1.417       .  A
C996       C1001   1.452   1_556  S
C997        C998   1.425       .  A
C997       C1004   1.451       .  S
C998        C999   1.425       .  A
C999       C1000   1.412       .  A
C999       C1002   1.452       .  S
C1000      C1003   1.454       .  S
C1001      N1008   1.157       .  T
C1002      N1007   1.158       .  T
C1003      N1005   1.157       .  T
C1004      N1006   1.158       .  T
C1009      C1010   1.418       .  A
C1009      C1014   1.410       .  A
C1010      C1011   1.404       .  A
C1010      C1015   1.454       .  S
C1011      C1012   1.412       .  A
C1011      C1018   1.455       .  S
C1012      C1013   1.417       .  A
C1013      C1014   1.415       .  A
C1013      C1016   1.450       .  S
C1014      C1017   1.450       .  S
C1015      N1022   1.157       .  T
C1016      N1021   1.157       .  T
C1017      N1019   1.157       .  T
C1018      N1020   1.158       .  T
C1023      C1024   1.410       .  A
C1023      C1028   1.408       .  A
C1024      C1025   1.405       .  A
C1024      C1029   1.456       .  S
C1025      C1026   1.425       .  A
C1025      C1032   1.453       .  S
C1026      C1027   1.424       .  A
C1027      C1028   1.417       .  A
C1027      C1030   1.449       .  S
C1028      C1031   1.451       .  S
C1029      N1036   1.157       .  T
C1030      N1035   1.157       .  T
C1031      N1033   1.157       .  T
C1032      N1034   1.157       .  T
C1037      C1038   1.414       .  A
C1037      C1042   1.414       .  A
C1038      C1039   1.408       .  A
C1038      C1043   1.454       .  S
C1039      C1040   1.417       .  A
C1039      C1046   1.454       .  S
C1040      C1041   1.417       .  A
C1041      C1042   1.418       .  A
C1041      C1044   1.450       .  S
C1042      C1045   1.450       .  S
C1043      N1050   1.157       .  T
C1044      N1049   1.157   1_556  T
C1045      N1047   1.157       .  T
C1046      N1048   1.157       .  T
C1051      C1052   1.414       .  A
C1051      C1056   1.412       .  A
C1052      C1053   1.410   1_565  A
C1052      C1057   1.453       .  S
C1053      C1054   1.416   1_545  A
C1053      C1060   1.451       .  S
C1054      C1055   1.416   1_556  A
C1055      C1056   1.407   1_554  A
C1055      C1058   1.453       .  S
C1056      C1059   1.453   1_556  S
C1057      N1064   1.157   1_565  T
C1058      N1063   1.157       .  T
C1059      N1061   1.157       .  T
C1060      N1062   1.158       .  T
C1065      C1066   1.422       .  A
C1065      C1070   1.425       .  A
C1066      C1067   1.409   1_565  A
C1066      C1071   1.452       .  S
C1067      C1068   1.411       .  A
C1067      C1074   1.454       .  S
C1068      C1069   1.408   1_545  A
C1069      C1070   1.413       .  A
C1069      C1072   1.452   1_565  S
C1070      C1073   1.451       .  S
C1071      N1078   1.157       .  T
C1072      N1077   1.157       .  T
C1073      N1075   1.158       .  T
C1074      N1076   1.157       .  T
C1079      C1080   1.426       .  A
C1079      C1084   1.420       .  A
C1080      C1081   1.406       .  A
C1080      C1085   1.453       .  S
C1081      C1082   1.404       .  A
C1081      C1088   1.452       .  S
C1082      C1083   1.412       .  A
C1083      C1084   1.414       .  A
C1083      C1086   1.451       .  S
C1084      C1087   1.451       .  S
C1085      N1092   1.158       .  T
C1086      N1091   1.157       .  T
C1087      N1089   1.157       .  T
C1088      N1090   1.157       .  T
C1093      C1094   1.408       .  A
C1093      C1098   1.411   1_556  A
C1094      C1095   1.417       .  A
C1094      C1099   1.452       .  S
C1095      C1096   1.426       .  A
C1095      C1102   1.451       .  S
C1096      C1097   1.420       .  A
C1097      C1098   1.415   1_556  A
C1097      C1100   1.450   1_556  S
C1098      C1101   1.452       .  S
C1099      N1106   1.158       .  T
C1100      N1105   1.157       .  T
C1101      N1103   1.157       .  T
C1102      N1104   1.157       .  T
C1107      C1108   1.416       .  A
C1107      C1112   1.413       .  A
C1108      C1109   1.409       .  A
C1108      C1113   1.452       .  S
C1109      C1110   1.412       .  A
C1109      C1116   1.452       .  S
C1110      C1111   1.413   1_556  A
C1111      C1112   1.408   1_554  A
C1111      C1114   1.453       .  S
C1112      C1115   1.451   1_556  S
C1113      N1120   1.157       .  T
C1114      N1119   1.157       .  T
C1115      N1117   1.157       .  T
C1116      N1118   1.157       .  T
C1121      C1122   1.420       .  A
C1121      C1126   1.410       .  A
C1122      C1123   1.401       .  A
C1122      C1127   1.453       .  S
C1123      C1124   1.407       .  A
C1123      C1130   1.455       .  S
C1124      C1125   1.413       .  A
C1125      C1126   1.412       .  A
C1125      C1128   1.451       .  S
C1126      C1129   1.448       .  S
C1127      N1134   1.157       .  T
C1128      N1133   1.157       .  T
C1129      N1131   1.157       .  T
C1130      N1132   1.157       .  T
C1135      C1136   1.429       .  A
C1135      C1140   1.428       .  A
C1136      C1137   1.417       .  A
C1136      C1141   1.451       .  S
C1137      C1138   1.407       .  A
C1137      C1144   1.452       .  S
C1138      C1139   1.408       .  A
C1139      C1140   1.416       .  A
C1139      C1142   1.453       .  S
C1140      C1143   1.451       .  S
C1141      N1148   1.158       .  T
C1142      N1147   1.157       .  T
C1143      N1145   1.158       .  T
C1144      N1146   1.157       .  T
C1149      C1150   1.417       .  A
C1149      C1154   1.409       .  A
C1150      C1151   1.415       .  A
C1150      C1155   1.452       .  S
C1151      C1152   1.418       .  A
C1151      C1158   1.451       .  S
C1152      C1153   1.425       .  A
C1153      C1154   1.410       .  A
C1153      C1156   1.453       .  S
C1154      C1157   1.453       .  S
C1155      N1162   1.157       .  T
C1156      N1161   1.158       .  T
C1157      N1159   1.157       .  T
C1158      N1160   1.157       .  T
C1163      C1164   1.417       .  A
C1163      C1168   1.410       .  A
C1164      C1165   1.404       .  A
C1164      C1169   1.453       .  S
C1165      C1166   1.410       .  A
C1165      C1172   1.454       .  S
C1166      C1167   1.414       .  A
C1167      C1168   1.413       .  A
C1167      C1170   1.451       .  S
C1168      C1171   1.450       .  S
C1169      N1176   1.157       .  T
C1170      N1175   1.157       .  T
C1171      N1173   1.157       .  T
C1172      N1174   1.157       .  T
C1177      C1178   1.410       .  A
C1177      C1182   1.412       .  A
C1178      C1179   1.416       .  A
C1178      C1183   1.451       .  S
C1179      C1180   1.421       .  A
C1179      C1186   1.451       .  S
C1180      C1181   1.418       .  A
C1181      C1182   1.414       .  A
C1181      C1184   1.449       .  S
C1182      C1185   1.452       .  S
C1183      N1190   1.157       .  T
C1184      N1189   1.157       .  T
C1185      N1187   1.157       .  T
C1186      N1188   1.157       .  T
C1191      C1192   1.410       .  A
C1191      C1196   1.415       .  A
C1192      C1193   1.409   1_655  A
C1192      C1197   1.448       .  S
C1193      C1194   1.414       .  A
C1193      C1200   1.451       .  S
C1194      C1195   1.412       .  A
C1195      C1196   1.412   1_455  A
C1195      C1198   1.451       .  S
C1196      C1199   1.451       .  S
C1197      N1204   1.156       .  T
C1198      N1203   1.157       .  T
C1199      N1201   1.157       .  T
C1200      N1202   1.157       .  T
C1205      C1206   1.423       .  A
C1205      C1210   1.422       .  A
C1206      C1207   1.413       .  A
C1206      C1211   1.451       .  S
C1207      C1208   1.412       .  A
C1207      C1214   1.453       .  S
C1208      C1209   1.412       .  A
C1209      C1210   1.411       .  A
C1209      C1212   1.452       .  S
C1210      C1213   1.452       .  S
C1211      N1218   1.157       .  T
C1212      N1217   1.157       .  T
C1213      N1215   1.158       .  T
C1214      N1216   1.158       .  T
C1219      C1220   1.406       .  A
C1219      C1224   1.418       .  A
C1220      C1221   1.410       .  A
C1220      C1225   1.452       .  S
C1221      C1222   1.420       .  A
C1221      C1228   1.448       .  S
C1222      C1223   1.412       .  A
C1223      C1224   1.410       .  A
C1223      C1226   1.450       .  S
C1224      C1227   1.453       .  S
C1225      N1232   1.157       .  T
C1226      N1231   1.156       .  T
C1227      N1229   1.157       .  T
C1228      N1230   1.156       .  T
C1233      C1234   1.413       .  A
C1233      C1238   1.410       .  A
C1234      C1235   1.412       .  A
C1234      C1239   1.448       .  S
C1235      C1236   1.417       .  A
C1235      C1242   1.452       .  S
C1236      C1237   1.421   1_455  A
C1237      C1238   1.413   1_655  A
C1237      C1240   1.449       .  S
C1238      C1241   1.450       .  S
C1239      N1246   1.156       .  T
C1240      N1245   1.157       .  T
C1241      N1243   1.157       .  T
C1242      N1244   1.157       .  T
C1247      C1248   1.409       .  A
C1247      C1252   1.410       .  A
C1248      C1249   1.414       .  A
C1248      C1253   1.452       .  S
C1249      C1250   1.422       .  A
C1249      C1256   1.451       .  S
C1250      C1251   1.420       .  A
C1251      C1252   1.416       .  A
C1251      C1254   1.450   1_565  S
C1252      C1255   1.449       .  S
C1253      N1260   1.157       .  T
C1254      N1259   1.157       .  T
C1255      N1257   1.157       .  T
C1256      N1258   1.157       .  T
C1261      C1262   1.424       .  A
C1261      C1266   1.414       .  A
C1262      C1263   1.413       .  A
C1262      C1267   1.451       .  S
C1263      C1264   1.411       .  A
C1263      C1270   1.452       .  S
C1264      C1265   1.420       .  A
C1265      C1266   1.413       .  A
C1265      C1268   1.453       .  S
C1266      C1269   1.452       .  S
C1267      N1274   1.157       .  T
C1268      N1273   1.157       .  T
C1269      N1271   1.158       .  T
C1270      N1272   1.158       .  T
C1275      C1276   1.418       .  A
C1275      C1280   1.412       .  A
C1276      C1277   1.408       .  A
C1276      C1281   1.453       .  S
C1277      C1278   1.413       .  A
C1277      C1284   1.453       .  S
C1278      C1279   1.415       .  A
C1279      C1280   1.413       .  A
C1279      C1282   1.449       .  S
C1280      C1283   1.448       .  S
C1281      N1288   1.158       .  T
C1282      N1287   1.156       .  T
C1283      N1285   1.156       .  T
C1284      N1286   1.157       .  T
C1289      C1290   1.413       .  A
C1289      C1294   1.409       .  A
C1290      C1291   1.417       .  A
C1290      C1295   1.452       .  S
C1291      C1292   1.419       .  A
C1291      C1298   1.449       .  S
C1292      C1293   1.422       .  A
C1293      C1294   1.416       .  A
C1293      C1296   1.450       .  S
C1294      C1297   1.451       .  S
C1295      N1302   1.157       .  T
C1296      N1301   1.157       .  T
C1297      N1299   1.157       .  T
C1298      N1300   1.157       .  T
C1303      C1304   1.419   1_455  A
C1303      C1308   1.419   1_455  A
C1304      C1305   1.414       .  A
C1304      C1309   1.451   1_655  S
C1305      C1306   1.417       .  A
C1305      C1312   1.452       .  S
C1306      C1307   1.413       .  A
C1307      C1308   1.405       .  A
C1307      C1310   1.453   1_565  S
C1308      C1311   1.453   1_655  S
C1309      N1316   1.158       .  T
C1310      N1315   1.157       .  T
C1311      N1313   1.158       .  T
C1312      N1314   1.157       .  T
C1317      C1318   1.408       .  A
C1317      C1322   1.404       .  A
C1318      C1319   1.406       .  A
C1318      C1323   1.454       .  S
C1319      C1320   1.424       .  A
C1319      C1326   1.452       .  S
C1320      C1321   1.429       .  A
C1321      C1322   1.411       .  A
C1321      C1324   1.451       .  S
C1322      C1325   1.452       .  S
C1323      N1330   1.157       .  T
C1324      N1329   1.158       .  T
C1325      N1327   1.157       .  T
C1326      N1328   1.158       .  T
C1331      C1332   1.416       .  A
C1331      C1336   1.414       .  A
C1332      C1333   1.417       .  A
C1332      C1337   1.446       .  S
C1333      C1334   1.412       .  A
C1333      C1340   1.450       .  S
C1334      C1335   1.420       .  A
C1335      C1336   1.410       .  A
C1335      C1338   1.453       .  S
C1336      C1339   1.454   1_655  S
C1337      N1344   1.156       .  T
C1338      N1343   1.157       .  T
C1339      N1341   1.158       .  T
C1340      N1342   1.157       .  T
