geometry optimzed in LAMMPS
_audit_creation_date              2020-12-01 
_audit_creation_method            'lammps2cif' 
_symmetry_space_group_name_H-M    'P1' 
_symmetry_Int_Tables_number       1 
_symmetry_cell_setting            triclinic 
loop_ 
_symmetry_equiv_pos_as_xyz 
  x,y,z 
_cell_length_a                    23.59692836 
_cell_length_b                    24.76028492592466 
_cell_length_c                    23.73702121365434 
_cell_angle_alpha                 90.18109069910507 
_cell_angle_beta                  90.96414595186111 
_cell_angle_gamma                 89.52029981845776 
loop_ 
_atom_site_label 
_atom_site_type_symbol 
_atom_site_fract_x 
_atom_site_fract_y 
_atom_site_fract_z 
_atom_site_charge 
C1          C  0.26919386  0.27879155  0.28556312     0.30600
C2          C  0.20828269  0.22851075  0.20368192     0.30600
C3          C  0.30241818  0.27026669  0.22950942    -0.05600
C4          C  0.24772912  0.22165865  0.29936072    -0.06400
C5          C  0.21428385  0.30957072  0.26495110    -0.06300
C6          C  0.27017018  0.24397193  0.18913357    -0.05700
C7          C  0.21506050  0.19595468  0.25928086    -0.06400
C8          C  0.18200951  0.28295631  0.22445827    -0.06300
C9          C  0.30316883  0.23652708  0.14201594    -0.31700
N10         N  0.35492583  0.25858079  0.14959104     0.14800
C11         C  0.35475572  0.28061067  0.20292444    -0.31700
H12         H  0.38913286  0.30428404  0.21997883     0.16700
C13         C  0.19565822  0.14875326  0.28529614    -0.30700
N14         N  0.21859600  0.14466429  0.33870775     0.13500
C15         C  0.25089901  0.18910284  0.34660242    -0.30700
C16         C  0.13174881  0.31310772  0.21759295    -0.31000
N17         N  0.13435285  0.35916742  0.24931983     0.14000
H18         H  0.09538618  0.30216074  0.19179123     0.16700
C19         C  0.18503708  0.35740800  0.27791344    -0.31000
H20         H  0.19915498  0.38825693  0.30721428     0.16700
H21         H  0.27478230  0.19773384  0.38483653     0.16700
H22         H  0.29035564  0.21614020  0.10383955     0.16700
H23         H  0.16599456  0.12028439  0.26714050     0.16700
N24         N  0.98645227  0.41848672  0.25395422    -0.36100
N25         N  0.07511868  0.50134709  0.25189419    -0.56600
N26         N  0.98627208  0.58493338  0.25491212    -0.36100
N27         N  0.89682233  0.50230744  0.26818610    -0.56600
C28         C  0.03461286  0.39001412  0.26763391     0.27500
C29         C  0.94166360  0.39138123  0.27550856     0.27500
C30         C  0.03418953  0.61440804  0.26441570     0.27500
C31         C  0.94123154  0.61494682  0.27270046     0.27500
C32         C  0.10684672  0.45676688  0.23983515     0.36100
C33         C  0.10660569  0.54517668  0.23866898     0.36100
C34         C  0.86403148  0.45782607  0.25836937     0.36100
C35         C  0.86414211  0.54716588  0.25808547     0.36100
C36         C  0.02020138  0.34564034  0.29942120    -0.21300
C37         C  0.96198634  0.34753144  0.30551707    -0.21300
C38         C  0.01946795  0.66276130  0.28988053    -0.21300
C39         C  0.96127957  0.66306913  0.29527139    -0.21300
C40         C  0.15847340  0.47242311  0.21862389    -0.22400
C41         C  0.15828703  0.52819051  0.21778958    -0.22400
C42         C  0.81015798  0.47473257  0.24190501    -0.22400
C43         C  0.81035717  0.53078214  0.24151459    -0.22400
C44         C  0.09119243  0.40243541  0.25147767    -0.17700
C45         C  0.88267003  0.40266390  0.26559097    -0.17700
C46         C  0.88230123  0.60238559  0.26467847    -0.17700
C47         C  0.09065799  0.60015465  0.24846931    -0.17700
H48         H  0.04887577  0.31591099  0.31769681     0.15200
H49         H  0.93692261  0.32065679  0.33055547     0.15200
H50         H  0.04785058  0.69448719  0.30353930     0.15200
H51         H  0.93652193  0.69534989  0.31370348     0.15200
H52         H  0.19287863  0.44644766  0.20535194     0.13400
H53         H  0.19251827  0.55327614  0.20361423     0.13400
H54         H  0.77461667  0.44957167  0.23011249     0.13400
H55         H  0.77525797  0.55640478  0.22873896     0.13400
H56         H  0.98374183  0.45132639  0.22662347     0.26700
H57         H  0.98373600  0.54913338  0.23191508     0.26700
C58         C  0.79135246  0.79240947  0.23138589     0.30600
C59         C  0.71051994  0.73716335  0.28599432     0.30600
C60         C  0.80514796  0.73157075  0.24423695    -0.05600
C61         C  0.77354697  0.81583854  0.28913560    -0.06400
C62         C  0.73329192  0.78767164  0.19717345    -0.06300
C63         C  0.76507856  0.70357512  0.27400923    -0.05700
C64         C  0.73385091  0.78757364  0.31827033    -0.06400
C65         C  0.69331964  0.75992659  0.22731250    -0.06300
C66         C  0.78919012  0.65266453  0.28609332    -0.31700
N67         N  0.84113392  0.64780605  0.26141529     0.14800
C68         C  0.85017646  0.69595885  0.23515900    -0.31700
H69         H  0.88794130  0.70525626  0.21195054     0.16700
C70         C  0.72720770  0.81532558  0.36969319    -0.30700
N71         N  0.75993206  0.86076257  0.37068742     0.13500
C72         C  0.78857481  0.86080853  0.32145539    -0.30700
C73         C  0.64411591  0.75596511  0.19510762    -0.31000
N74         N  0.65007191  0.77940776  0.14451463     0.14000
H75         H  0.60597759  0.73570651  0.20712194     0.16700
C76         C  0.70519450  0.79850839  0.14450402    -0.31000
H77         H  0.72400093  0.81817302  0.10882953     0.16700
H78         H  0.81848555  0.89155502  0.30975454     0.16700
H79         H  0.77096944  0.62217422  0.31259102     0.16700
H80         H  0.70010945  0.80357114  0.40379850     0.16700
N81         N  0.20002853  0.00353869  0.39612169    -0.36100
N82         N  0.22132167  0.08600053  0.48431337    -0.56600
N83         N  0.22176588  0.00181199  0.57203823    -0.36100
N84         N  0.21155952  0.91909480  0.48467469    -0.56600
C85         C  0.21561525  0.04681226  0.36485721     0.27500
C86         C  0.20977448  0.95825885  0.36495637     0.27500
C87         C  0.23839409  0.04568753  0.60282257     0.27500
C88         C  0.23454746  0.95655074  0.60263729     0.27500
C89         C  0.20677326  0.11747026  0.43925769     0.36100
C90         C  0.21679722  0.11750874  0.53126694     0.36100
C91         C  0.19269031  0.88982677  0.43969477     0.36100
C92         C  0.20569407  0.88754221  0.53112725     0.36100
C93         C  0.23565997  0.02864627  0.31364152    -0.21300
C94         C  0.23171014  0.97305746  0.31348839    -0.21300
C95         C  0.26179671  0.02787661  0.65352363    -0.21300
C96         C  0.25941131  0.97208158  0.65336197    -0.21300
C97         C  0.19215517  0.16872459  0.45806505    -0.22400
C98         C  0.19863093  0.16878268  0.51585657    -0.22400
C99         C  0.17395492  0.84007482  0.45812863    -0.22400
C100        C  0.18267928  0.83841578  0.51562798    -0.22400
C101        C  0.21158629  0.10221363  0.38116644    -0.17700
C102        C  0.19930416  0.90403576  0.38176733    -0.17700
C103        C  0.22232173  0.90171006  0.58722954    -0.17700
C104        C  0.23065295  0.10145332  0.58774108    -0.17700
H105        H  0.25349249  0.05270513  0.28061225     0.15200
H106        H  0.24531700  0.94666724  0.27983646     0.15200
H107        H  0.27924823  0.05246593  0.68723498     0.15200
H108        H  0.27472815  0.94590823  0.68679136     0.15200
H109        H  0.17828218  0.20281309  0.43280208     0.13400
H110        H  0.19031866  0.20278120  0.54331381     0.13400
H111        H  0.15652597  0.80788652  0.43257495     0.13400
H112        H  0.17292934  0.80493621  0.54291383     0.13400
H113        H  0.18027722  0.00498530  0.43490963     0.26700
H114        H  0.19822147  0.00311190  0.53484660     0.26700
N115        N  0.76849422  0.00238560  0.43053725    -0.36100
N116        N  0.77707779  0.08653163  0.51781091    -0.56600
N117        N  0.79394082  0.00378825  0.60596320    -0.36100
N118        N  0.77503251  0.91954004  0.51783198    -0.56600
C119        C  0.75330486  0.04709873  0.40029163     0.27500
C120        C  0.75334295  0.95792583  0.39986847     0.27500
C121        C  0.78191167  0.04859265  0.63718643     0.27500
C122        C  0.78076549  0.95986999  0.63733502     0.27500
C123        C  0.78120424  0.11764274  0.47094620     0.36100
C124        C  0.79426419  0.11741111  0.56224938     0.36100
C125        C  0.77890323  0.88744517  0.47120321     0.36100
C126        C  0.79138595  0.88902246  0.56296961     0.36100
C127        C  0.72820600  0.03065446  0.34990370    -0.21300
C128        C  0.72833945  0.97477267  0.34959307    -0.21300
C129        C  0.76119019  0.03278584  0.68879229    -0.21300
C130        C  0.76020002  0.97712618  0.68869464    -0.21300
C131        C  0.80181409  0.16803261  0.48564602    -0.22400
C132        C  0.81025552  0.16783562  0.54317427    -0.22400
C133        C  0.79821990  0.83670407  0.48681647    -0.22400
C134        C  0.80630345  0.83768682  0.54448182    -0.22400
C135        C  0.76420837  0.10227562  0.41533948    -0.17700
C136        C  0.76367384  0.90257971  0.41483052    -0.17700
C137        C  0.78685119  0.90465069  0.62103083    -0.17700
C138        C  0.78876974  0.10331922  0.62018754    -0.17700
H139        H  0.71151174  0.05624731  0.31657396     0.15200
H140        H  0.71172262  0.94944920  0.31605291     0.15200
H141        H  0.74619842  0.05845761  0.72243947     0.15200
H142        H  0.74375275  0.95238609  0.72189249     0.15200
H143        H  0.80982260  0.20160811  0.45790433     0.13400
H144        H  0.82549019  0.20146539  0.56825138     0.13400
H145        H  0.80605949  0.80257693  0.45941498     0.13400
H146        H  0.82099435  0.80406060  0.56999170     0.13400
H147        H  0.79288803  0.00223389  0.46723728     0.26700
H148        H  0.81330775  0.00310291  0.56693109     0.26700
C149        C  0.19618026  0.79467075  0.77166939     0.30600
C150        C  0.27794761  0.73853044  0.71816073     0.30600
C151        C  0.18406858  0.73309322  0.76147394    -0.05600
C152        C  0.21289590  0.81615078  0.71298955    -0.06400
C153        C  0.25449958  0.79206018  0.80556542    -0.06300
C154        C  0.22430294  0.70446466  0.73182181    -0.05700
C155        C  0.25289005  0.78736327  0.68429654    -0.06400
C156        C  0.29501375  0.76362003  0.77596932    -0.06300
C157        C  0.20072751  0.65297515  0.72148916    -0.31700
N158        N  0.14888783  0.64884740  0.74673889     0.14800
C159        C  0.14011052  0.69749329  0.77268314    -0.31700
H160        H  0.10266594  0.70753066  0.79639819     0.16700
C161        C  0.25852704  0.81394736  0.63217101    -0.30700
N162        N  0.22530493  0.85954001  0.63076457     0.13500
C163        C  0.19681646  0.86042239  0.67991498    -0.30700
C164        C  0.34366627  0.75908134  0.80898913    -0.31000
N165        N  0.33679279  0.78251199  0.85977711     0.14000
H166        H  0.38169426  0.73752169  0.79761205     0.16700
C167        C  0.28156718  0.80235486  0.85887231    -0.31000
H168        H  0.26170025  0.82129918  0.89465376     0.16700
H169        H  0.16669084  0.89166000  0.69116438     0.16700
H170        H  0.21920320  0.62170530  0.69554836     0.16700
H171        H  0.28556704  0.80160937  0.59800881     0.16700
N172        N  0.09166437  0.50449473  0.73587461    -0.36100
N173        N  0.00140329  0.42039171  0.74899663    -0.56600
N174        N  0.91257143  0.50504267  0.74873885    -0.36100
N175        N  0.00239263  0.58853864  0.75063648    -0.56600
C176        C  0.12282363  0.45875463  0.74672334     0.27500
C177        C  0.12379113  0.54867394  0.74887440     0.27500
C178        C  0.88149689  0.46058333  0.76100451     0.27500
C179        C  0.88163873  0.54971498  0.76218660     0.27500
C180        C  0.04598458  0.39323648  0.72627315     0.36100
C181        C  0.95389022  0.39202147  0.73474971     0.36100
C182        C  0.04770400  0.61886877  0.73529855     0.36100
C183        C  0.95478784  0.61930298  0.74124451     0.36100
C184        C  0.17556979  0.47426165  0.76718439    -0.21300
C185        C  0.17633118  0.53048032  0.76826124    -0.21300
C186        C  0.82996393  0.47735143  0.78242349    -0.21300
C187        C  0.83002156  0.53330687  0.78311388    -0.21300
C188        C  0.02633134  0.34983933  0.69553591    -0.22400
C189        C  0.96840762  0.34774578  0.70228156    -0.22400
C190        C  0.02814012  0.66813328  0.71495596    -0.22400
C191        C  0.97000266  0.66863352  0.71926391    -0.22400
C192        C  0.10462097  0.40394481  0.73675928    -0.17700
C193        C  0.10671578  0.60459756  0.74277558    -0.17700
C194        C  0.89757256  0.60474208  0.75348506    -0.17700
C195        C  0.89733346  0.40562432  0.75016126    -0.17700
H196        H  0.20950678  0.44787219  0.78136773     0.15200
H197        H  0.21122120  0.55503189  0.78309767     0.15200
H198        H  0.79566175  0.45200034  0.79593972     0.15200
H199        H  0.79577925  0.55893663  0.79744126     0.15200
H200        H  0.05169586  0.32434620  0.66877392     0.13400
H201        H  0.93987012  0.31872058  0.68315153     0.13400
H202        H  0.05305693  0.70010482  0.69739937     0.13400
H203        H  0.94191156  0.70118021  0.70621924     0.13400
H204        H  0.05147203  0.50543842  0.71662231     0.26700
H205        H  0.95100196  0.50503125  0.72742253     0.26700
C206        C  0.72422734  0.27939274  0.71512970     0.30600
C207        C  0.78694203  0.22996206  0.79709897     0.30600
C208        C  0.77655436  0.31204125  0.73794415    -0.05600
C209        C  0.69066012  0.26789410  0.77034724    -0.06400
C210        C  0.75013205  0.22380647  0.70020551    -0.06300
C211        C  0.80971351  0.28596762  0.77863528    -0.05700
C212        C  0.72358761  0.24134312  0.81028804    -0.06400
C213        C  0.78359078  0.19882969  0.74026895    -0.06300
C214        C  0.85912243  0.31648627  0.78494245    -0.31700
N215        N  0.85478024  0.36265412  0.75366644     0.14800
C216        C  0.80413700  0.36024440  0.72518023    -0.31700
H217        H  0.78940147  0.39049411  0.69543594     0.16700
C218        C  0.69002354  0.23040955  0.85606844    -0.30700
N219        N  0.63784782  0.25275181  0.84926187     0.13500
C220        C  0.63775421  0.27650710  0.79681851    -0.30700
C221        C  0.80440814  0.15154016  0.71481096    -0.31000
N222        N  0.78195235  0.14690692  0.66145593     0.14000
H223        H  0.83357450  0.12263943  0.73374626     0.16700
C224        C  0.74856492  0.19099358  0.65296568    -0.31000
H225        H  0.72424440  0.19862203  0.61472474     0.16700
H226        H  0.60287803  0.30043004  0.78035571     0.16700
H227        H  0.89635745  0.30521973  0.80941700     0.16700
H228        H  0.70313025  0.20803587  0.89300604     0.16700
N229        N  0.48747476  0.76412767  0.91516329    -0.36100
N230        N  0.58142620  0.76875603  0.99881786    -0.56600
N231        N  0.49832129  0.76536881  0.09064445    -0.36100
N232        N  0.40413056  0.77285674  0.00700468    -0.56600
C233        C  0.53379413  0.77041337  0.88189396     0.27500
C234        C  0.44094747  0.78491974  0.88734852     0.27500
C235        C  0.54551586  0.78471344  0.11812469     0.27500
C236        C  0.45228800  0.77359741  0.12410275     0.27500
C237        C  0.60875603  0.74779444  0.95348849     0.36100
C238        C  0.61651399  0.76219169  0.04462313     0.36100
C239        C  0.36914174  0.76651227  0.96094041     0.36100
C240        C  0.37651730  0.75319512  0.05261617     0.36100
C241        C  0.51667629  0.79566098  0.83250493    -0.21300
C242        C  0.45895944  0.80558250  0.83627042    -0.21300
C243        C  0.52824054  0.80657664  0.16916948    -0.21300
C244        C  0.47022102  0.79892187  0.17313965    -0.21300
C245        C  0.66060641  0.72643312  0.97147404    -0.22400
C246        C  0.66586720  0.73642708  0.02852452    -0.22400
C247        C  0.31948519  0.74232707  0.97720703    -0.22400
C248        C  0.32458896  0.73284015  0.03437360    -0.22400
C249        C  0.59112298  0.75439482  0.89551304    -0.17700
C250        C  0.38218574  0.78077089  0.90412749    -0.17700
C251        C  0.39458577  0.75902065  0.11093574    -0.17700
C252        C  0.60409585  0.77832223  0.10096325    -0.17700
H253        H  0.54316128  0.80701311  0.79778252     0.15200
H254        H  0.43310484  0.82546142  0.80434395     0.15200
H255        H  0.55477544  0.82573981  0.20088556     0.15200
H256        H  0.44394300  0.81181546  0.20764418     0.15200
H257        H  0.69211436  0.70643255  0.94598667     0.13400
H258        H  0.70133735  0.72459561  0.05530200     0.13400
H259        H  0.28401408  0.73080318  0.95045252     0.13400
H260        H  0.29307409  0.71326490  0.05959825     0.13400
H261        H  0.48718230  0.74236164  0.95256788     0.26700
H262        H  0.49787790  0.74313341  0.05339534     0.26700
N263        N  0.49016675  0.24488947  0.91212885    -0.36100
N264        N  0.58547377  0.23717621  0.99710594    -0.56600
N265        N  0.50295119  0.24645525  0.08750372    -0.36100
N266        N  0.40764795  0.24114976  0.00257131    -0.56600
C267        C  0.53655434  0.23768066  0.87908638     0.27500
C268        C  0.44319770  0.22658747  0.88332529     0.27500
C269        C  0.54928393  0.22603890  0.11618862     0.27500
C270        C  0.45620531  0.24067184  0.12020324     0.27500
C271        C  0.61248586  0.25727634  0.95148016     0.36100
C272        C  0.62106046  0.24319991  0.04278155     0.36100
C273        C  0.37210044  0.24732651  0.95693103     0.36100
C274        C  0.38109324  0.26306032  0.04785878     0.36100
C275        C  0.51904409  0.21443466  0.82868282    -0.21300
C276        C  0.46100274  0.20670635  0.83163026    -0.21300
C277        C  0.53067841  0.20613387  0.16730578    -0.21300
C278        C  0.47283259  0.21601787  0.17013602    -0.21300
C279        C  0.66468870  0.27734637  0.96923467    -0.22400
C280        C  0.67057040  0.26738171  0.02621662    -0.22400
C281        C  0.32303578  0.27345455  0.97314828    -0.22400
C282        C  0.32917885  0.28447401  0.02994286    -0.22400
C283        C  0.59415846  0.25178180  0.89334753    -0.17700
C284        C  0.38444090  0.23173716  0.90036117    -0.17700
C285        C  0.39902513  0.25712506  0.10595123    -0.17700
C286        C  0.60826898  0.22934716  0.09964768    -0.17700
H287        H  0.54545209  0.20307032  0.79368808     0.15200
H288        H  0.43490055  0.18869047  0.79884112     0.15200
H289        H  0.55615869  0.18661505  0.19971828     0.15200
H290        H  0.44594817  0.20511043  0.20470105     0.15200
H291        H  0.69583479  0.29699356  0.94368751     0.13400
H292        H  0.70633848  0.27867674  0.05269254     0.13400
H293        H  0.28733661  0.28511389  0.94654854     0.13400
H294        H  0.29812642  0.30517531  0.05538452     0.13400
H295        H  0.49055380  0.26581724  0.95019090     0.26700
H296        H  0.50339475  0.26784044  0.04985003     0.26700
C297        C  0.72260832  0.73130323  0.71741638     0.30600
C298        C  0.78366695  0.78038454  0.79999119     0.30600
C299        C  0.77560998  0.69872322  0.73971822    -0.05600
C300        C  0.74703899  0.78728344  0.70344243    -0.06400
C301        C  0.68845205  0.74190014  0.77246452    -0.06300
C302        C  0.80780375  0.72468887  0.78069676    -0.05700
C303        C  0.77996552  0.81232023  0.74376751    -0.06400
C304        C  0.72064946  0.76783438  0.81315937    -0.06300
C305        C  0.85701712  0.69351608  0.78880228    -0.31700
N306        N  0.85405655  0.64754562  0.75700513     0.14800
C307        C  0.80397918  0.65026353  0.72742293    -0.31700
H308        H  0.79008263  0.61994581  0.69741801     0.16700
C309        C  0.80197937  0.85818703  0.71717832    -0.30700
N310        N  0.77988437  0.86232301  0.66344491     0.13500
C311        C  0.74609718  0.81909089  0.65568078    -0.30700
C312        C  0.68709289  0.77596882  0.85979844    -0.31000
N313        N  0.63522410  0.75405281  0.85178498     0.14000
H314        H  0.69991865  0.79608061  0.89817254     0.16700
C315        C  0.63565971  0.73217410  0.79833473    -0.31000
H316        H  0.60126558  0.70880751  0.78065091     0.16700
H317        H  0.72234832  0.81110977  0.61723606     0.16700
H318        H  0.89322396  0.70408590  0.81502106     0.16700
H319        H  0.83262611  0.88578242  0.73512287     0.16700
C320        C  0.79423992  0.21103929  0.23357626     0.30600
C321        C  0.71256696  0.26740576  0.28697078     0.30600
C322        C  0.80904887  0.27134621  0.24753258    -0.05600
C323        C  0.73654071  0.21679910  0.19822519    -0.06400
C324        C  0.77412190  0.18767845  0.29029975    -0.06300
C325        C  0.76787902  0.30009191  0.27599702    -0.05700
C326        C  0.69632295  0.24550752  0.22770058    -0.06400
C327        C  0.73482488  0.21711952  0.31943860    -0.06300
C328        C  0.78997028  0.35206263  0.28604355    -0.31700
N329        N  0.84266519  0.35650084  0.26288741     0.14800
C330        C  0.85355312  0.30724717  0.23852633    -0.31700
H331        H  0.89180552  0.29767966  0.21592057     0.16700
C332        C  0.64786753  0.25144400  0.19444525    -0.30700
N333        N  0.65402789  0.22748046  0.14384671     0.13500
C334        C  0.70887926  0.20638296  0.14504202    -0.30700
C335        C  0.72894359  0.19062828  0.37126158    -0.31000
N336        N  0.76007543  0.14374800  0.37149938     0.14000
H337        H  0.70401671  0.20448845  0.40631683     0.16700
C338        C  0.78779902  0.14205564  0.32204801    -0.31000
H339        H  0.81680390  0.11000905  0.31035743     0.16700
H340        H  0.72792570  0.18560752  0.10985169     0.16700
H341        H  0.76925037  0.38388331  0.30952225     0.16700
H342        H  0.61013850  0.27341852  0.20605630     0.16700
C343        C  0.19747875  0.21269870  0.76846546     0.30600
C344        C  0.27763669  0.27018926  0.71485530     0.30600
C345        C  0.25508838  0.21986720  0.80373379    -0.05600
C346        C  0.21884621  0.18848327  0.71258088    -0.06400
C347        C  0.18097177  0.27273082  0.75364847    -0.06300
C348        C  0.29449074  0.24902867  0.77404605    -0.05700
C349        C  0.25709986  0.21824089  0.68317726    -0.06400
C350        C  0.22139972  0.30200986  0.72534908    -0.06300
C351        C  0.34350944  0.25428229  0.80632372    -0.31700
N352        N  0.33829441  0.23022237  0.85674827     0.14800
C353        C  0.28381840  0.20921016  0.85629245    -0.31700
H354        H  0.26598062  0.18808140  0.89154965     0.16700
C355        C  0.26468721  0.19016456  0.63203544    -0.30700
N356        N  0.23500358  0.14284771  0.63218722     0.13500
C357        C  0.20774727  0.14152272  0.68202104    -0.30700
C358        C  0.19748902  0.35340817  0.71495642    -0.31000
N359        N  0.14493103  0.35745104  0.73844762     0.14000
H360        H  0.21656810  0.38512691  0.69075200     0.16700
C361        C  0.13509750  0.30796793  0.76216311    -0.31000
H362        H  0.09689014  0.29788292  0.78427386     0.16700
H363        H  0.17958204  0.10951338  0.69433164     0.16700
H364        H  0.38098927  0.27574897  0.79420345     0.16700
H365        H  0.28966380  0.20333824  0.59690920     0.16700
C366        C  0.26113036  0.72736860  0.28733935     0.30600
C367        C  0.19968015  0.77724025  0.20473406     0.30600
C368        C  0.21058628  0.69403999  0.26222074    -0.05600
C369        C  0.23412996  0.78248330  0.30227083    -0.06400
C370        C  0.29630136  0.74085491  0.23330177    -0.06300
C371        C  0.17740632  0.72070709  0.22196420    -0.05700
C372        C  0.20149455  0.80786921  0.26191689    -0.06400
C373        C  0.26358383  0.76665618  0.19263366    -0.06300
C374        C  0.12832606  0.68994858  0.21486742    -0.31700
N375        N  0.13349016  0.64275630  0.24422539     0.14800
C376        C  0.18464284  0.64447002  0.27178644    -0.31700
H377        H  0.20077046  0.61278914  0.29903583     0.16700
C378        C  0.18188437  0.85591946  0.28703565    -0.30700
N379        N  0.20424129  0.86026389  0.34049082     0.13500
C380        C  0.23649397  0.81563974  0.34921548    -0.30700
C381        C  0.29790883  0.77834440  0.14758160    -0.31000
N382        N  0.35086329  0.75793652  0.15548202     0.14000
H383        H  0.28476995  0.80007173  0.11029392     0.16700
C384        C  0.35084546  0.73532576  0.20877677    -0.31000
H385        H  0.38703003  0.71500544  0.22795138     0.16700
H386        H  0.26090201  0.80816044  0.38741501     0.16700
H387        H  0.09056344  0.70184966  0.19159807     0.16700
H388        H  0.15408708  0.88573448  0.26764739     0.16700
N389        N  0.09504897  0.90899591  0.98222916    -0.05600
N390        N  0.13201187  0.87027893  0.97230075    -0.57700
N391        N  0.04359069  0.93661202  0.11224204    -0.05300
N392        N  0.02588655  0.93454570  0.16484129    -0.59800
N393        N  0.02599186  0.89385117  0.08498829    -0.04800
N394        N  0.00009533  0.86062334  0.11828840    -0.57700
N395        N  0.12089834  0.95040654  0.00516176    -0.04500
N396        N  0.17561378  0.94113288  0.00787571    -0.60200
C397        C  0.18065782  0.88781186  0.99726382     0.96600
C398        C  0.99848524  0.88655938  0.16778877     0.96400
N399        N  0.00091025  0.10080425  0.09406409    -0.05800
N400        N  0.96517050  0.12188178  0.12924835    -0.58300
N401        N  0.10723364  0.07076120  0.01093239    -0.03900
N402        N  0.16011963  0.08393680  0.00333630    -0.59500
N403        N  0.07392231  0.10968636  0.99327212    -0.05800
N404        N  0.10387144  0.15119112  0.97697735    -0.58500
N405        N  0.02900839  0.06029943  0.11699413    -0.03500
N406        N  0.01026312  0.05151226  0.16836574    -0.59600
Mn407      Mn  0.07760926  0.00487493  0.06342398     1.18400
C408        C  0.97064750  0.09067792  0.17490513     0.98700
C409        C  0.15792667  0.13738328  0.99115825     0.99400
N410        N  0.91631721  0.89449112  0.01383558    -0.05800
N411        N  0.88562663  0.85275826  0.02810862    -0.62100
N412        N  0.95668443  0.93961668  0.88784645    -0.04600
N413        N  0.96532532  0.93934366  0.83293470    -0.62800
N414        N  0.98465550  0.89971194  0.91136987    -0.05300
N415        N  0.00910111  0.86937135  0.87397778    -0.62400
N416        N  0.88335914  0.93438191  0.99745546    -0.04200
N417        N  0.83034983  0.92177706  0.00480696    -0.63100
Mn418      Mn  0.00584544  0.89766463  0.99776040     1.10700
C419        C  0.83174566  0.86793226  0.01442513     0.99900
C420        C  0.99832911  0.89487093  0.82525449     1.00000
N421        N  0.96876926  0.10647155  0.91772660    -0.05300
N422        N  0.00220531  0.13374906  0.88527708    -0.60700
N423        N  0.86899487  0.05492134  0.99649111    -0.04600
N424        N  0.81441636  0.06490246  0.99338002    -0.57400
N425        N  0.89519905  0.09611792  0.01899211    -0.06000
N426        N  0.85882977  0.13538286  0.02881316    -0.60300
N427        N  0.94898590  0.06363139  0.89160212    -0.04900
N428        N  0.97185759  0.05978602  0.84119605    -0.57400
Mn429      Mn  0.98457397  0.10506864  0.00627894     1.20200
Mn430      Mn  0.91215325  0.99807117  0.94144327     1.10100
Cl431      Cl  0.99510025  0.00135761  0.00218658    -0.85400
C432        C  0.00495589  0.10407998  0.83824079     0.96900
C433        C  0.80987479  0.11827693  0.00424060     0.96700
N434        N  0.54803806  0.45231382  0.39227210    -0.05600
N435        N  0.57396723  0.40886970  0.37530795    -0.57700
N436        N  0.49351276  0.57431365  0.37790207    -0.05300
N437        N  0.47874961  0.61920323  0.35168244    -0.59800
N438        N  0.54595948  0.57644397  0.39657373    -0.04800
N439        N  0.56698102  0.62399921  0.38604438    -0.56900
N440        N  0.49504026  0.45248988  0.37501258    -0.04500
N441        N  0.48398949  0.40975614  0.34351249    -0.60200
C442        C  0.53397915  0.38302396  0.34502166     0.96600
C443        C  0.52527222  0.65000245  0.35676915     0.96400
N444        N  0.37381748  0.57478395  0.49829554    -0.05800
N445        N  0.35551893  0.62320068  0.51331423    -0.58300
N446        N  0.38716165  0.45122642  0.44296053    -0.03900
N447        N  0.37777084  0.40449111  0.41925980    -0.59500
N448        N  0.37297539  0.45040779  0.49609754    -0.05800
N449        N  0.35248048  0.40284313  0.50970740    -0.58500
N450        N  0.38785692  0.57436859  0.44516765    -0.03500
N451        N  0.38131921  0.62231612  0.42337961    -0.59600
Mn452      Mn  0.43879274  0.51273597  0.40771612     1.18400
C453        C  0.36212188  0.65256366  0.46614013     0.98700
C454        C  0.35720542  0.37472160  0.46135915     0.99400
N455        N  0.61896282  0.57193895  0.50256473    -0.05800
N456        N  0.64033604  0.61913960  0.48907366    -0.62100
N457        N  0.60425579  0.44796305  0.55372406    -0.04600
N458        N  0.61326404  0.40103981  0.57697765    -0.62800
N459        N  0.61803415  0.44711140  0.50042084    -0.05300
N460        N  0.63823561  0.39888413  0.48656410    -0.62400
N461        N  0.60573245  0.57060782  0.55594236    -0.04200
N462        N  0.61684701  0.61684395  0.58002809    -0.63100
Mn463      Mn  0.58569686  0.51197435  0.44594266     1.10700
C464        C  0.63725963  0.64673647  0.53782851     0.99900
C465        C  0.63347658  0.37063495  0.53497455     1.00000
N466        N  0.44440586  0.44781105  0.60166880    -0.05300
N467        N  0.42146247  0.40073473  0.60922593    -0.60700
N468        N  0.49805414  0.57042209  0.62293351    -0.04600
N469        N  0.51190948  0.61590713  0.64845435    -0.57400
N470        N  0.44570939  0.57243052  0.60393096    -0.06000
N471        N  0.42397668  0.62011674  0.61299911    -0.60300
N472        N  0.49678158  0.44758297  0.62069485    -0.04900
N473        N  0.50934641  0.40089151  0.64480120    -0.57400
Mn474      Mn  0.40636351  0.51141488  0.55228723     1.20200
Mn475      Mn  0.55324168  0.50913568  0.59117350     1.10100
Cl476      Cl  0.49609043  0.51117399  0.49923501    -0.85400
C477        C  0.46158991  0.37191581  0.63683245     0.96900
C478        C  0.46486697  0.64658736  0.64162597     0.96700
C479        C  0.19449607  0.86042027  0.14990795    -0.11700
C480        C  0.17602751  0.80661700  0.15351178     0.05300
C481        C  0.16685164  0.77819246  0.10194754    -0.07000
C482        C  0.17831029  0.80266548  0.05054402    -0.07800
C483        C  0.19719442  0.85607994  0.04788522    -0.02300
C484        C  0.20924665  0.88330832  0.09913745     0.04500
N485        N  0.23868001  0.93363888  0.10092678     0.67000
H486        H  0.20761206  0.88260382  0.18693001     0.15900
H487        H  0.16866981  0.78071988  0.01199331     0.15600
N488        N  0.14616015  0.72427936  0.10002670     0.74700
O489        O  0.21241132  0.97585527  0.11562498    -0.38700
O490        O  0.29213275  0.93303596  0.10350076    -0.38700
O491        O  0.09469405  0.71706268  0.08692848    -0.39400
O492        O  0.18088350  0.68580166  0.09360043    -0.39400
C493        C  0.34096539  0.73221357  0.35711896    -0.11700
C494        C  0.28807669  0.70895733  0.34264353     0.05300
C495        C  0.25312671  0.69250735  0.38882455    -0.07000
C496        C  0.27541083  0.69138832  0.44350169    -0.07800
C497        C  0.33218913  0.70172837  0.45275960    -0.02300
C498        C  0.36025003  0.73291291  0.41319745     0.04500
N499        N  0.41247790  0.75827118  0.42832137     0.67000
H500        H  0.36516437  0.75349129  0.32600546     0.15900
H501        H  0.25092001  0.67354394  0.47683077     0.15600
N502        N  0.19422876  0.67990205  0.38307342     0.74700
O503        O  0.41244560  0.80842682  0.43789836    -0.38700
O504        O  0.45389786  0.72985946  0.44549033    -0.38700
O505        O  0.17734263  0.63463484  0.40018743    -0.39400
O506        O  0.15846823  0.71768472  0.37712267    -0.39400
C507        C  0.40633200  0.36034584  0.71632828    -0.11700
C508        C  0.44070605  0.33438256  0.67719116     0.05300
C509        C  0.42430176  0.28428226  0.65566737    -0.07000
C510        C  0.37016691  0.26589698  0.66579763    -0.07800
C511        C  0.32954797  0.29840162  0.69330424    -0.02300
C512        C  0.34933674  0.34669019  0.71963875     0.04500
N513        N  0.31378870  0.38138852  0.75210904     0.67000
H514        H  0.41983744  0.39850730  0.73451603     0.15900
H515        H  0.36181151  0.22504973  0.65316714     0.15600
N516        N  0.45983221  0.25407275  0.61864184     0.74700
O517        O  0.30463048  0.42871423  0.73434818    -0.38700
O518        O  0.30813716  0.37207248  0.80393767    -0.38700
O519        O  0.47866917  0.20860993  0.63437999    -0.39400
O520        O  0.45932671  0.26531280  0.56681971    -0.39400
C521        C  0.05399491  0.13994485  0.76135767    -0.11700
C522        C  0.05762808  0.10653743  0.80741768     0.05300
C523        C  0.11030166  0.10064880  0.83657701    -0.07000
C524        C  0.15406697  0.13757192  0.82603303    -0.07800
C525        C  0.14734555  0.17767655  0.78477614    -0.02300
C526        C  0.09738063  0.17539279  0.74929935     0.04500
N527        N  0.08731258  0.20979835  0.70178277     0.67000
H528        H  0.01422281  0.14285227  0.73783926     0.15900
H529        H  0.19374720  0.13397783  0.84911205     0.15600
N530        N  0.12021802  0.05704698  0.87571303     0.74700
O531        O  0.04125481  0.23585870  0.70073357    -0.38700
O532        O  0.10859830  0.19725156  0.65510531    -0.38700
O533        O  0.07968315  0.02946539  0.89378043    -0.39400
O534        O  0.17027991  0.04161588  0.88693058    -0.39400
C535        C  0.83167239  0.12797122  0.18655277    -0.11700
C536        C  0.84376351  0.17477656  0.21784332     0.05300
C537        C  0.89396025  0.17343610  0.25325701    -0.07000
C538        C  0.93055694  0.12911604  0.25270076    -0.07800
C539        C  0.92352271  0.08919702  0.21297698    -0.02300
C540        C  0.86990714  0.08442138  0.18670090     0.04500
N541        N  0.85258232  0.03384462  0.16414094     0.67000
H542        H  0.79062621  0.12293636  0.16632299     0.15900
H543        H  0.97021064  0.13098094  0.27649425     0.15600
N544        N  0.90952289  0.21560404  0.29131586     0.74700
O545        O  0.82947087  0.00084016  0.19670610    -0.38700
O546        O  0.84631354  0.02817352  0.11165062    -0.38700
O547        O  0.88671912  0.21782745  0.33898996    -0.39400
O548        O  0.95840143  0.23503429  0.28625438    -0.39400
C549        C  0.64976896  0.34592619  0.27859335    -0.11700
C550        C  0.66057162  0.29667629  0.30682496     0.05300
C551        C  0.61269450  0.26797990  0.32738726    -0.07000
C552        C  0.56017109  0.29361448  0.32881964    -0.07800
C553        C  0.55242651  0.34421034  0.30471416    -0.02300
C554        C  0.59472467  0.36465904  0.27049867     0.04500
N555        N  0.58440157  0.41111140  0.23615350     0.67000
H556        H  0.68231739  0.36557792  0.25479294     0.15900
H557        H  0.52707840  0.27601415  0.35372494     0.15600
N558        N  0.61400023  0.21187230  0.34158032     0.74700
O559        O  0.59963173  0.45706183  0.25352098    -0.38700
O560        O  0.57273829  0.40450458  0.18453400    -0.38700
O561        O  0.59808320  0.19760965  0.38979661    -0.39400
O562        O  0.61395174  0.17731058  0.30237481    -0.39400
C563        C  0.73579666  0.69497010  0.62133714    -0.11700
C564        C  0.69650480  0.71214220  0.66253088     0.05300
C565        C  0.64409744  0.73386353  0.64217374    -0.07000
C566        C  0.62975564  0.72906144  0.58500694    -0.07800
C567        C  0.66373053  0.69751886  0.55000465    -0.02300
C568        C  0.72053521  0.69076956  0.56489826     0.04500
N569        N  0.76022405  0.66926549  0.52571557     0.67000
H570        H  0.78019818  0.68922405  0.63123261     0.15900
H571        H  0.58729351  0.74032167  0.57106097     0.15600
N572        N  0.60693694  0.76414442  0.67725345     0.74700
O573        O  0.78863977  0.70127877  0.49638725    -0.38700
O574        O  0.77575920  0.62049788  0.52952473    -0.38700
O575        O  0.61100301  0.81492156  0.67855107    -0.39400
O576        O  0.56118287  0.74287525  0.69197439    -0.39400
C577        C  0.82722474  0.77099166  0.89587585    -0.11700
C578        C  0.80801538  0.80617952  0.85261235     0.05300
C579        C  0.78561453  0.85698526  0.86899675    -0.07000
C580        C  0.77802628  0.86829101  0.92554374    -0.07800
C581        C  0.80517571  0.83713483  0.96758772    -0.02300
C582        C  0.82693251  0.78623566  0.95241068     0.04500
N583        N  0.84834549  0.74933040  0.99397163     0.67000
H584        H  0.83847197  0.72960925  0.88743527     0.15900
H585        H  0.75737871  0.90625194  0.93596375     0.15600
N586        N  0.76445597  0.89567074  0.82929922     0.74700
O587        O  0.81410549  0.71978132  0.01973157    -0.38700
O588        O  0.90047869  0.73748292  0.99524602    -0.38700
O589        O  0.71172505  0.89894976  0.81993333    -0.39400
O590        O  0.79490281  0.93589859  0.81866013    -0.39400
C591        C  0.79345143  0.14676921  0.85195012    -0.11700
C592        C  0.81106978  0.20081175  0.84823436     0.05300
C593        C  0.82052002  0.22931089  0.89975276    -0.07000
C594        C  0.81142730  0.20403094  0.95133900    -0.07800
C595        C  0.79293100  0.15043288  0.95400800    -0.02300
C596        C  0.77988301  0.12352400  0.90285083     0.04500
N597        N  0.75094717  0.07292673  0.90137447     0.67000
H598        H  0.78004687  0.12450987  0.81508198     0.15900
H599        H  0.82137653  0.22587885  0.98986899     0.15600
N600        N  0.83671199  0.28470235  0.90129621     0.74700
O601        O  0.69766079  0.07266111  0.90487011    -0.38700
O602        O  0.77613144  0.03153434  0.88285899    -0.38700
O603        O  0.79877631  0.32066393  0.90534403    -0.39400
O604        O  0.88696780  0.29609560  0.91564363    -0.39400
C605        C  0.73545654  0.31689796  0.61895918    -0.11700
C606        C  0.69729109  0.29915067  0.66044045     0.05300
C607        C  0.64398581  0.28005350  0.64058028    -0.07000
C608        C  0.62745560  0.28874738  0.58438185    -0.07800
C609        C  0.66102377  0.32024812  0.54937139    -0.02300
C610        C  0.71813740  0.32596305  0.56358166     0.04500
N611        N  0.75634853  0.35064198  0.52556813     0.67000
H612        H  0.78011753  0.32131289  0.62814041     0.15900
H613        H  0.58416340  0.27989739  0.57163367     0.15600
N614        N  0.60683183  0.25047124  0.67557932     0.74700
O615        O  0.76702767  0.40031055  0.53050406    -0.38700
O616        O  0.78809104  0.32112534  0.49604940    -0.38700
O617        O  0.56120523  0.27258984  0.69071178    -0.39400
O618        O  0.61108746  0.19965427  0.67709358    -0.39400
C619        C  0.09630965  0.91243653  0.80696363    -0.11700
C620        C  0.04448371  0.89171014  0.78628201     0.05300
C621        C  0.04526353  0.84452623  0.75441854    -0.07000
C622        C  0.09424359  0.81355926  0.75393109    -0.07800
C623        C  0.14358487  0.82729568  0.78577301    -0.02300
C624        C  0.14574708  0.88039805  0.80763946     0.04500
N625        N  0.19793248  0.90382663  0.82634131     0.67000
H626        H  0.09673655  0.95057425  0.82913091     0.15900
H627        H  0.09364836  0.77920072  0.72604723     0.15600
N628        N  0.99426266  0.82281441  0.73032574     0.74700
O629        O  0.22805283  0.92812612  0.79124475    -0.38700
O630        O  0.20606426  0.91266952  0.87813847    -0.38700
O631        O  0.98932128  0.81853435  0.67749868    -0.39400
O632        O  0.96061575  0.79749167  0.76126134    -0.39400
C633        C  0.41226915  0.65581965  0.72270487    -0.11700
C634        C  0.44500971  0.68313644  0.68358311     0.05300
C635        C  0.42557183  0.73234825  0.66201771    -0.07000
C636        C  0.36977109  0.74720373  0.67031136    -0.07800
C637        C  0.33121431  0.71240705  0.69679869    -0.02300
C638        C  0.35402187  0.66566545  0.72400231     0.04500
N639        N  0.32021273  0.62984461  0.75629109     0.67000
H640        H  0.42857823  0.61883914  0.74156764     0.15900
H641        H  0.35829343  0.78729587  0.65702810     0.15600
N642        N  0.45809028  0.76233853  0.62271117     0.74700
O643        O  0.31531759  0.58144162  0.74022230    -0.38700
O644        O  0.30857815  0.64177403  0.80654102    -0.38700
O645        O  0.45739515  0.74841834  0.57151202    -0.39400
O646        O  0.47437348  0.80920588  0.63580190    -0.39400
C647        C  0.61760126  0.74682936  0.33027882    -0.11700
C648        C  0.65795707  0.71067122  0.30761585     0.05300
C649        C  0.63677541  0.66335454  0.28017138    -0.07000
C650        C  0.57840519  0.65493465  0.27650820    -0.07800
C651        C  0.54275838  0.68441870  0.31163448    -0.02300
C652        C  0.56040300  0.73500865  0.33008715     0.04500
N653        N  0.52062655  0.77523743  0.34760008     0.67000
H654        H  0.62815487  0.78767572  0.34148936     0.15900
H655        H  0.56339206  0.61748209  0.25790563     0.15600
N656        N  0.67247212  0.62546876  0.25207683     0.74700
O657        O  0.52988262  0.80084861  0.39284116    -0.38700
O658        O  0.48698780  0.79530708  0.31132832    -0.38700
O659        O  0.68140814  0.63148713  0.20020641    -0.39400
O660        O  0.67878201  0.57911331  0.27336298    -0.39400
C661        C  0.89319608  0.81361423  0.24783793    -0.11700
C662        C  0.84359978  0.82385302  0.21482943     0.05300
C663        C  0.84286452  0.87045626  0.18065853    -0.07000
C664        C  0.89472392  0.89610869  0.16988428    -0.07800
C665        C  0.94547942  0.87974107  0.19743965    -0.02300
C666        C  0.94355607  0.84042309  0.23904206     0.04500
N667        N  0.99361740  0.82386238  0.26926736     0.67000
H668        H  0.89317498  0.78411574  0.28136329     0.15900
H669        H  0.89616535  0.92762144  0.13841754     0.15600
N670        N  0.79054695  0.89493579  0.16161797     0.74700
O671        O  0.99977291  0.83679757  0.32044907    -0.38700
O672        O  0.02569123  0.78832301  0.24839100    -0.38700
O673        O  0.75129475  0.90284496  0.19624653    -0.39400
O674        O  0.78838152  0.92000647  0.11550158    -0.39400
C675        C  0.25683813  0.31514468  0.38206503    -0.11700
C676        C  0.29546884  0.29913745  0.33988422     0.05300
C677        C  0.35024675  0.28238870  0.35853392    -0.07000
C678        C  0.36719777  0.29203471  0.41427258    -0.07800
C679        C  0.33258047  0.32313616  0.44912613    -0.02300
C680        C  0.27481117  0.32606845  0.43672509     0.04500
N681        N  0.23610566  0.35040895  0.47513010     0.67000
H682        H  0.21176444  0.31748980  0.37383148     0.15900
H683        H  0.41124889  0.28521427  0.42622044     0.15600
N684        N  0.38894685  0.25512623  0.32255874     0.74700
O685        O  0.22654668  0.40058442  0.47257831    -0.38700
O686        O  0.20245485  0.32078070  0.50155130    -0.38700
O687        O  0.43300428  0.27947801  0.30799625    -0.39400
O688        O  0.38810278  0.20424701  0.31980835    -0.39400
C689        C  0.21575023  0.14170264  0.07696023    -0.11700
C690        C  0.18417617  0.17063956  0.03633680     0.05300
C691        C  0.15910785  0.22000923  0.05269203    -0.07000
C692        C  0.16058419  0.23534796  0.10924206    -0.07800
C693        C  0.18433964  0.20156129  0.15145566    -0.02300
C694        C  0.20984188  0.15237398  0.13389612     0.04500
N695        N  0.23663816  0.11567047  0.17243479     0.67000
H696        H  0.23875443  0.10532666  0.06533530     0.15900
H697        H  0.14646755  0.27576594  0.11840253     0.15600
N698        N  0.13210200  0.25516431  0.01254836     0.74700
O699        O  0.21200222  0.07184925  0.18259613    -0.38700
O700        O  0.28944344  0.11858569  0.18115681    -0.38700
O701        O  0.07901573  0.26172052  0.01367515    -0.39400
O702        O  0.16168129  0.28915422  0.98696008    -0.39400
loop_ 
_geom_bond_atom_site_label_1 
_geom_bond_atom_site_label_2 
_geom_bond_distance 
_geom_bond_site_symmetry_2 
_ccdc_geom_bond_type 
C1            C3   1.568       .  S
C1            C5   1.570       .  S
C1            C4   1.545       .  S
C1          C676   1.508       .  S
C2            C6   1.557       .  S
C2            C8   1.561       .  S
C2            C7   1.554       .  S
C2          C693   1.510       .  S
C3           C11   1.422       .  A
C3            C6   1.379       .  A
C4           C15   1.384       .  A
C4            C7   1.373       .  A
C5           C19   1.402       .  A
C5            C8   1.385       .  A
C6            C9   1.384       .  A
C7           C13   1.407       .  A
C8           C16   1.404       .  A
C9           N10   1.351       .  A
C9           H22   1.076       .  S
N10          C11   1.377       .  A
N10         C285   1.481       .  S
C11          H12   1.077       .  S
C13          N14   1.374       .  A
C13          H23   1.081       .  S
N14          C15   1.355       .  A
N14         C101   1.471       .  S
C15          H21   1.082       .  S
C16          N17   1.366       .  A
C16          H18   1.082       .  S
N17          C19   1.366       .  A
N17          C44   1.473       .  S
C19          H20   1.082       .  S
N24          C29   1.364       .  A
N24          C28   1.367   1_655  A
N24          H56   1.043       .  S
N25          C32   1.361       .  A
N25          C33   1.361       .  A
N26          C31   1.364       .  A
N26          C30   1.366   1_655  A
N26          H57   1.041       .  S
N27          C34   1.368       .  A
N27          C35   1.366       .  A
C28          C36   1.383       .  A
C28          C44   1.431       .  A
C29          C45   1.433       .  A
C29          C37   1.379       .  A
C30          C38   1.384       .  A
C30          C47   1.432       .  A
C31          C46   1.437       .  A
C31          C39   1.388       .  A
C32          C44   1.427       .  A
C32          C40   1.385       .  A
C33          C47   1.429       .  A
C33          C41   1.386       .  A
C34          C42   1.385       .  A
C34          C45   1.441       .  A
C35          C43   1.386       .  A
C35          C46   1.444       .  A
C36          C37   1.384   1_455  A
C36          H48   1.082       .  S
C37          H49   1.080       .  S
C38          C39   1.381   1_455  A
C38          H50   1.082       .  S
C39          H51   1.082       .  S
C40          C41   1.381       .  A
C40          H52   1.082       .  S
C41          H53   1.082       .  S
C42          C43   1.388       .  A
C42          H54   1.081       .  S
C43          H55   1.079       .  S
C45         N329   1.489       .  S
C46          N67   1.481       .  S
C47         N375   1.472       .  S
C58          C60   1.568       .  S
C58          C62   1.586       .  S
C58          C61   1.550       .  S
C58         C662   1.521       .  S
C59          C63   1.557       .  S
C59          C65   1.551       .  S
C59          C64   1.562       .  S
C59         C648   1.506       .  S
C60          C68   1.394       .  A
C60          C63   1.382       .  A
C61          C72   1.395       .  A
C61          C64   1.372       .  A
C62          C76   1.430       .  A
C62          C65   1.382       .  A
C63          C66   1.407       .  A
C64          C70   1.409       .  A
C65          C73   1.383       .  A
C66          N67   1.372       .  A
C66          H79   1.081       .  S
N67          C68   1.367       .  A
C68          H69   1.082       .  S
C70          N71   1.370       .  A
C70          H80   1.082       .  S
N71          C72   1.360       .  A
N71         C136   1.473       .  S
C72          H78   1.082       .  S
C73          N74   1.345       .  A
C73          H75   1.077       .  S
N74          C76   1.388       .  A
N74         C252   1.486       .  S
C76          H77   1.082       .  S
N81          C86   1.361   1_545  A
N81          C85   1.362       .  A
N81         H113   1.039       .  S
N82          C89   1.363       .  A
N82          C90   1.364       .  A
N83          C88   1.366   1_545  A
N83          C87   1.364       .  A
N83         H114   1.036       .  S
N84          C91   1.359       .  A
N84          C92   1.363       .  A
C85          C93   1.384       .  A
C85         C101   1.427       .  A
C86         C102   1.427       .  A
C86          C94   1.386       .  A
C87          C95   1.387       .  A
C87         C104   1.437       .  A
C88         C103   1.436       .  A
C88          C96   1.385       .  A
C89         C101   1.435       .  A
C89          C97   1.387       .  A
C90         C104   1.431       .  A
C90          C98   1.385       .  A
C91          C99   1.387       .  A
C91         C102   1.432       .  A
C92         C100   1.383       .  A
C92         C103   1.426       .  A
C93          C94   1.380   1_545  A
C93         H105   1.079       .  S
C94         H106   1.082       .  S
C95          C96   1.383   1_545  A
C95         H107   1.082       .  S
C96         H108   1.082       .  S
C97          C98   1.378       .  A
C97         H109   1.082       .  S
C98         H110   1.082       .  S
C99         C100   1.378       .  A
C99         H111   1.080       .  S
C100        H112   1.082       .  S
C102        N379   1.464       .  S
C103        N162   1.472       .  S
C104        N356   1.472       .  S
N115        C120   1.365   1_545  A
N115        C119   1.364       .  A
N115        H147   1.036       .  S
N116        C123   1.360       .  A
N116        C124   1.359       .  A
N117        C122   1.361   1_545  A
N117        C121   1.363       .  A
N117        H148   1.040       .  S
N118        C125   1.364       .  A
N118        C126   1.362       .  A
C119        C127   1.387       .  A
C119        C135   1.435       .  A
C120        C136   1.435       .  A
C120        C128   1.386       .  A
C121        C129   1.385       .  A
C121        C138   1.426       .  A
C122        C137   1.427       .  A
C122        C130   1.385       .  A
C123        C135   1.425       .  A
C123        C131   1.384       .  A
C124        C138   1.428       .  A
C124        C132   1.387       .  A
C125        C133   1.382       .  A
C125        C136   1.430       .  A
C126        C134   1.388       .  A
C126        C137   1.436       .  A
C127        C128   1.384   1_545  A
C127        H139   1.082       .  S
C128        H140   1.082       .  S
C129        C130   1.379   1_545  A
C129        H141   1.081       .  S
C130        H142   1.079       .  S
C131        C132   1.377       .  A
C131        H143   1.082       .  S
C132        H144   1.082       .  S
C133        C134   1.379       .  A
C133        H145   1.081       .  S
C134        H146   1.082       .  S
C135        N336   1.466       .  S
C137        N310   1.468       .  S
C138        N222   1.465       .  S
C149        C151   1.571       .  S
C149        C153   1.583       .  S
C149        C152   1.551       .  S
C149        C623   1.517       .  S
C150        C154   1.566       .  S
C150        C156   1.553       .  S
C150        C155   1.561       .  S
C150        C637   1.504       .  S
C151        C159   1.396       .  A
C151        C154   1.381       .  A
C152        C163   1.397       .  A
C152        C155   1.367       .  A
C153        C167   1.431       .  A
C153        C156   1.383       .  A
C154        C157   1.414       .  A
C155        C161   1.412       .  A
C156        C164   1.383       .  A
C157        N158   1.376       .  A
C157        H170   1.081       .  S
N158        C159   1.367       .  A
N158        C193   1.488       .  S
C159        H160   1.082       .  S
C161        N162   1.369       .  A
C161        H171   1.082       .  S
N162        C163   1.356       .  A
C163        H169   1.082       .  S
C164        N165   1.348       .  A
C164        H166   1.078       .  S
N165        C167   1.389       .  A
N165        C250   1.490       .  S
C167        H168   1.081       .  S
N172        C177   1.368       .  A
N172        C176   1.368       .  A
N172        H204   1.046       .  S
N173        C180   1.362       .  A
N173        C181   1.365   1_455  A
N174        C179   1.360       .  A
N174        C178   1.363       .  A
N174        H205   1.046       .  S
N175        C182   1.367       .  A
N175        C183   1.368   1_455  A
C176        C184   1.385       .  A
C176        C192   1.444       .  A
C177        C193   1.446       .  A
C177        C185   1.387       .  A
C178        C186   1.386       .  A
C178        C195   1.432       .  A
C179        C194   1.433       .  A
C179        C187   1.388       .  A
C180        C192   1.429       .  A
C180        C188   1.376       .  A
C181        C195   1.427       .  A
C181        C189   1.382       .  A
C182        C190   1.386       .  A
C182        C193   1.442       .  A
C183        C191   1.382       .  A
C183        C194   1.435       .  A
C184        C185   1.392       .  A
C184        H196   1.079       .  S
C185        H197   1.081       .  S
C186        C187   1.386       .  A
C186        H198   1.082       .  S
C187        H199   1.082       .  S
C188        C189   1.380   1_455  A
C188        H200   1.079       .  S
C189        H201   1.083       .  S
C190        C191   1.377   1_455  A
C190        H202   1.079       .  S
C191        H203   1.082       .  S
C192        N359   1.487       .  S
C194        N306   1.473       .  S
C195        N215   1.473       .  S
C206        C208   1.569       .  S
C206        C210   1.544       .  S
C206        C209   1.571       .  S
C206        C606   1.516       .  S
C207        C211   1.558       .  S
C207        C213   1.553       .  S
C207        C212   1.556       .  S
C207        C592   1.515       .  S
C208        C216   1.401       .  A
C208        C211   1.390       .  A
C209        C220   1.421       .  A
C209        C212   1.380       .  A
C210        C224   1.383       .  A
C210        C213   1.371       .  A
C211        C214   1.400       .  A
C212        C218   1.384       .  A
C213        C221   1.405       .  A
C214        N215   1.367       .  A
C214        H227   1.080       .  S
N215        C216   1.365       .  A
C216        H217   1.082       .  S
C218        N219   1.353       .  A
C218        H228   1.078       .  S
N219        C220   1.378       .  A
N219        C283   1.482       .  S
C220        H226   1.079       .  S
C221        N222   1.369       .  A
C221        H223   1.082       .  S
N222        C224   1.354       .  A
C224        H225   1.082       .  S
N229        C234   1.369       .  A
N229        C233   1.369       .  A
N229        H261   1.040       .  S
N230        C237   1.363       .  A
N230        C238   1.365   1_556  A
N231        C236   1.370       .  A
N231        C235   1.370       .  A
N231        H262   1.040       .  S
N232        C239   1.368   1_554  A
N232        C240   1.366       .  A
C233        C241   1.383       .  A
C233        C249   1.438       .  A
C234        C250   1.454       .  A
C234        C242   1.392       .  A
C235        C243   1.391       .  A
C235        C252   1.455       .  A
C236        C251   1.441       .  A
C236        C244   1.382       .  A
C237        C249   1.440       .  A
C237        C245   1.390       .  A
C238        C252   1.429       .  A
C238        C246   1.382       .  A
C239        C247   1.382       .  A
C239        C250   1.434       .  A
C240        C248   1.391       .  A
C240        C251   1.449       .  A
C241        C242   1.386       .  A
C241        H253   1.082       .  S
C242        H254   1.082       .  S
C243        C244   1.389       .  A
C243        H255   1.082       .  S
C244        H256   1.081       .  S
C245        C246   1.380   1_556  A
C245        H257   1.082       .  S
C246        H258   1.081       .  S
C247        C248   1.381   1_556  A
C247        H259   1.082       .  S
C248        H260   1.081       .  S
C249        N313   1.482       .  S
C251        N382   1.490       .  S
N263        C268   1.372       .  A
N263        C267   1.367       .  A
N263        H295   1.040       .  S
N264        C271   1.363       .  A
N264        C272   1.369   1_556  A
N265        C270   1.368       .  A
N265        C269   1.372       .  A
N265        H296   1.041       .  S
N266        C273   1.367   1_554  A
N266        C274   1.362       .  A
C267        C275   1.384       .  A
C267        C283   1.441       .  A
C268        C284   1.455       .  A
C268        C276   1.391       .  A
C269        C277   1.390       .  A
C269        C286   1.456       .  A
C270        C285   1.441       .  A
C270        C278   1.384       .  A
C271        C283   1.445       .  A
C271        C279   1.390       .  A
C272        C286   1.431       .  A
C272        C280   1.381       .  A
C273        C281   1.381       .  A
C273        C284   1.430       .  A
C274        C282   1.391       .  A
C274        C285   1.443       .  A
C275        C276   1.387       .  A
C275        H287   1.082       .  S
C276        H288   1.082       .  S
C277        C278   1.387       .  A
C277        H289   1.081       .  S
C278        H290   1.082       .  S
C279        C280   1.380   1_556  A
C279        H291   1.080       .  S
C280        H292   1.082       .  S
C281        C282   1.380   1_556  A
C281        H293   1.082       .  S
C282        H294   1.082       .  S
C284        N352   1.490       .  S
C286        N333   1.493       .  S
C297        C299   1.568       .  S
C297        C301   1.567       .  S
C297        C300   1.545       .  S
C297        C564   1.509       .  S
C298        C302   1.558       .  S
C298        C304   1.559       .  S
C298        C303   1.554       .  S
C298        C578   1.508       .  S
C299        C307   1.401       .  A
C299        C302   1.384       .  A
C300        C311   1.382       .  A
C300        C303   1.372       .  A
C301        C315   1.421       .  A
C301        C304   1.379       .  A
C302        C305   1.400       .  A
C303        C309   1.408       .  A
C304        C312   1.385       .  A
C305        N306   1.365       .  A
C305        H318   1.082       .  S
N306        C307   1.366       .  A
C307        H308   1.082       .  S
C309        N310   1.374       .  A
C309        H319   1.080       .  S
N310        C311   1.350       .  A
C311        H317   1.081       .  S
C312        N313   1.353       .  A
C312        H314   1.077       .  S
N313        C315   1.378       .  A
C315        H316   1.079       .  S
C320        C322   1.569       .  S
C320        C324   1.550       .  S
C320        C323   1.593       .  S
C320        C536   1.519       .  S
C321        C325   1.567       .  S
C321        C327   1.550       .  S
C321        C326   1.549       .  S
C321        C550   1.502       .  S
C322        C330   1.401       .  A
C322        C325   1.384       .  A
C323        C334   1.435       .  A
C323        C326   1.380       .  A
C324        C338   1.393       .  A
C324        C327   1.370       .  A
C325        C328   1.411       .  A
C326        C332   1.386       .  A
C327        C335   1.405       .  A
C328        N329   1.373       .  A
C328        H341   1.082       .  S
N329        C330   1.372       .  A
C330        H331   1.082       .  S
C332        N333   1.347       .  A
C332        H342   1.079       .  S
N333        C334   1.392       .  A
C334        H340   1.082       .  S
C335        N336   1.368       .  A
C335        H337   1.080       .  S
N336        C338   1.354       .  A
C338        H339   1.082       .  S
C343        C345   1.595       .  S
C343        C347   1.573       .  S
C343        C346   1.545       .  S
C343        C525   1.528       .  S
C344        C348   1.546       .  S
C344        C350   1.561       .  S
C344        C349   1.564       .  S
C344        C511   1.513       .  S
C345        C353   1.434       .  A
C345        C348   1.385       .  A
C346        C357   1.393       .  A
C346        C349   1.371       .  A
C347        C361   1.402       .  A
C347        C350   1.387       .  A
C348        C351   1.383       .  A
C349        C355   1.410       .  A
C350        C358   1.409       .  A
C351        N352   1.347       .  A
C351        H364   1.079       .  S
N352        C353   1.391       .  A
C353        H354   1.081       .  S
C355        N356   1.370       .  A
C355        H365   1.082       .  S
N356        C357   1.357       .  A
C357        H363   1.083       .  S
C358        N359   1.371       .  A
C358        H360   1.080       .  S
N359        C361   1.373       .  A
C361        H362   1.082       .  S
C366        C368   1.565       .  S
C366        C370   1.578       .  S
C366        C369   1.544       .  S
C366        C494   1.519       .  S
C367        C371   1.558       .  S
C367        C373   1.560       .  S
C367        C372   1.553       .  S
C367        C480   1.515       .  S
C368        C376   1.397       .  A
C368        C371   1.390       .  A
C369        C380   1.383       .  A
C369        C372   1.370       .  A
C370        C384   1.427       .  A
C370        C373   1.381       .  A
C371        C374   1.399       .  A
C372        C378   1.407       .  A
C373        C381   1.385       .  A
C374        N375   1.366       .  A
C374        H387   1.080       .  S
N375        C376   1.364       .  A
C376        H377   1.081       .  S
C378        N379   1.370       .  A
C378        H388   1.082       .  S
N379        C380   1.351       .  A
C380        H386   1.082       .  S
C381        N382   1.354       .  A
C381        H383   1.077       .  S
N382        C384   1.385       .  A
C384        H385   1.082       .  S
N389        N390   1.314       .  A
N389        N395   1.310   1_556  A
N389       Mn418   2.164       .  S
N390        C397   1.357       .  A
N391        N393   1.306       .  A
N391        N392   1.325       .  A
N391       Mn407   2.216   1_565  S
N392        C398   1.360   1_455  A
N393        N394   1.305       .  A
N393       Mn418   2.119   1_554  S
N394        C398   1.338   1_455  A
N395        N396   1.310       .  A
N395       Mn407   2.188   1_565  S
N396        C397   1.348   1_554  A
C397        C483   1.483   1_556  S
C398        C665   1.457       .  S
N399        N405   1.312       .  A
N399        N400   1.302   1_455  A
N399       Mn429   2.116   1_455  S
N400        C408   1.337       .  A
N401        N402   1.308       .  A
N401        N403   1.304   1_554  A
N401       Mn407   2.183       .  S
N402        C409   1.356   1_554  A
N403        N404   1.315       .  A
N403       Mn429   2.140   1_456  S
N404        C409   1.355       .  A
N405        N406   1.323       .  A
N405       Mn407   2.197       .  S
N406        C408   1.352   1_455  A
Mn407      Cl431   2.412   1_455  S
C408        C539   1.445       .  S
C409        C690   1.481   1_556  S
N410        N411   1.315       .  A
N410        N416   1.308   1_554  A
N410       Mn418   2.155   1_654  S
N411        C419   1.357       .  A
N412        N414   1.305       .  A
N412        N413   1.323       .  A
N412       Mn430   2.197       .  S
N413        C420   1.357       .  A
N414        N415   1.300   1_655  A
N414       Mn418   2.103   1_655  S
N415        C420   1.339   1_455  A
N416        N417   1.306   1_556  A
N416       Mn430   2.186       .  S
N417        C419   1.353       .  A
Mn418      Cl431   2.580   1_466  S
C419        C581   1.480   1_554  S
C420        C620   1.442   1_655  S
N421        N422   1.306   1_655  A
N421        N427   1.312       .  A
N421       Mn429   2.129   1_556  S
N422        C432   1.337       .  A
N423        N424   1.310       .  A
N423        N425   1.305   1_556  A
N423       Mn430   2.176   1_545  S
N424        C433   1.349   1_556  A
N425        N426   1.314       .  A
N425       Mn429   2.149       .  S
N426        C433   1.356       .  A
N427        N428   1.324       .  A
N427       Mn430   2.205   1_545  S
N428        C432   1.354   1_655  A
Mn429      Cl431   2.580       .  S
Mn430      Cl431   2.413   1_566  S
C432        C522   1.455       .  S
C433        C595   1.483   1_554  S
N434        N435   1.299       .  A
N434        N440   1.309       .  A
N434       Mn463   2.137       .  S
N435        C442   1.342       .  A
N436        N438   1.309       .  A
N436        N437   1.317       .  A
N436       Mn452   2.136       .  S
N437        C443   1.345       .  A
N438        N439   1.308       .  A
N438       Mn463   2.180       .  S
N439        C443   1.355       .  A
N440        N441   1.319       .  A
N440       Mn452   2.141       .  S
N441        C442   1.348       .  A
C442        C553   1.425       .  S
C443        C651   1.439       .  S
N444        N450   1.309       .  A
N444        N445   1.321       .  A
N444       Mn474   2.157       .  S
N445        C453   1.349       .  A
N446        N447   1.304       .  A
N446        N448   1.311       .  A
N446       Mn452   2.139       .  S
N447        C454   1.343       .  A
N448        N449   1.320       .  A
N448       Mn474   2.157       .  S
N449        C454   1.346       .  A
N450        N451   1.303       .  A
N450       Mn452   2.136       .  S
N451        C453   1.342       .  A
Mn452      Cl476   2.540       .  S
C453        C497   1.436       .  S
C454        C679   1.434       .  S
N455        N456   1.319       .  A
N455        N461   1.311       .  A
N455       Mn463   2.144       .  S
N456        C464   1.345       .  A
N457        N459   1.312       .  A
N457        N458   1.302       .  A
N457       Mn475   2.128       .  S
N458        C465   1.339       .  A
N459        N460   1.325       .  A
N459       Mn463   2.189       .  S
N460        C465   1.354       .  A
N461        N462   1.305       .  A
N461       Mn475   2.151       .  S
N462        C464   1.345       .  A
Mn463      Cl476   2.482       .  S
C464        C567   1.435       .  S
C465        C609   1.441       .  S
N466        N467   1.304       .  A
N466        N472   1.309       .  A
N466       Mn474   2.148       .  S
N467        C477   1.344       .  A
N468        N469   1.318       .  A
N468        N470   1.308       .  A
N468       Mn475   2.135       .  S
N469        C478   1.348       .  A
N470        N471   1.302       .  A
N470       Mn474   2.150       .  S
N471        C478   1.345       .  A
N472        N473   1.321       .  A
N472       Mn475   2.159       .  S
N473        C477   1.351       .  A
Mn474      Cl476   2.482       .  S
Mn475      Cl476   2.546       .  S
C477        C508   1.433       .  S
C478        C634   1.426       .  S
C479        C480   1.408       .  A
C479        C484   1.384       .  A
C479        H486   1.077       .  S
C480        C481   1.424       .  A
C481        C482   1.396       .  A
C481        N488   1.426       .  S
C482        C483   1.401       .  A
C482        H487   1.085       .  S
C483        C484   1.415       .  A
C484        N485   1.432       .  S
N485        O489   1.262       .  A
N485        O490   1.262       .  A
N488        O492   1.262       .  A
N488        O491   1.263       .  A
C493        C494   1.415       .  A
C493        C498   1.400       .  A
C493        H500   1.082       .  S
C494        C495   1.444       .  A
C495        C496   1.392       .  A
C495        N502   1.431       .  S
C496        C497   1.380       .  A
C496        H501   1.085       .  S
C497        C498   1.397       .  A
C498        N499   1.428       .  S
N499        O503   1.262       .  A
N499        O504   1.262       .  A
N502        O506   1.261       .  A
N502        O505   1.263       .  A
C507        C508   1.395       .  A
C507        C512   1.393       .  A
C507        H514   1.086       .  S
C508        C509   1.395       .  A
C509        C510   1.385       .  A
C509        N516   1.430       .  S
C510        C511   1.413       .  A
C510        H515   1.073       .  S
C511        C512   1.426       .  A
C512        N513   1.429       .  S
N513        O517   1.262       .  A
N513        O518   1.262       .  A
N516        O520   1.262       .  A
N516        O519   1.262       .  A
C521        C522   1.374       .  A
C521        C526   1.388       .  A
C521        H528   1.086       .  S
C522        C523   1.419       .  A
C523        C524   1.411       .  A
C523        N530   1.442       .  S
C524        C525   1.403       .  A
C524        H529   1.080       .  S
C525        C526   1.439       .  A
C526        N527   1.431       .  S
N527        O531   1.259       .  A
N527        O532   1.261       .  A
N530        O534   1.263       .  A
N530        O533   1.262       .  A
C535        C536   1.403       .  A
C535        C540   1.400       .  A
C535        H542   1.082       .  S
C536        C537   1.441       .  A
C537        C538   1.391       .  A
C537        N544   1.425       .  S
C538        C539   1.373       .  A
C538        H543   1.086       .  S
C539        C540   1.407       .  A
C540        N541   1.421       .  S
N541        O545   1.260       .  A
N541        O546   1.260       .  A
N544        O548   1.261       .  A
N544        O547   1.262       .  A
C549        C550   1.413       .  A
C549        C554   1.386       .  A
C549        H556   1.081       .  S
C550        C551   1.433       .  A
C551        C552   1.389       .  A
C551        N558   1.431       .  S
C552        C553   1.388       .  A
C552        H557   1.083       .  S
C553        C554   1.397       .  A
C554        N555   1.429       .  S
N555        O559   1.262       .  A
N555        O560   1.262       .  A
N558        O562   1.262       .  A
N558        O561   1.263       .  A
C563        C564   1.421       .  A
C563        C568   1.385       .  A
C563        H570   1.078       .  S
C564        C565   1.422       .  A
C565        C566   1.398       .  A
C565        N572   1.426       .  S
C566        C567   1.397       .  A
C566        H571   1.084       .  S
C567        C568   1.389       .  A
C568        N569   1.430       .  S
N569        O573   1.261       .  A
N569        O574   1.262       .  A
N572        O576   1.260       .  A
N572        O575   1.262       .  A
C577        C578   1.415       .  A
C577        C582   1.393       .  A
C577        H584   1.075       .  S
C578        C579   1.416       .  A
C579        C580   1.385       .  A
C579        N586   1.427       .  S
C580        C581   1.406       .  A
C580        H585   1.085       .  S
C581        C582   1.405       .  A
C582        N583   1.430       .  S
N583        O587   1.261   1_556  A
N583        O588   1.262       .  A
N586        O590   1.262       .  A
N586        O589   1.262       .  A
C591        C592   1.408       .  A
C591        C596   1.384       .  A
C591        H598   1.077       .  S
C592        C593   1.425       .  A
C593        C594   1.398       .  A
C593        N600   1.427       .  S
C594        C595   1.402       .  A
C594        H599   1.084       .  S
C595        C596   1.414       .  A
C596        N597   1.432       .  S
N597        O601   1.262       .  A
N597        O602   1.262       .  A
N600        O604   1.262       .  A
N600        O603   1.262       .  A
C605        C606   1.419       .  A
C605        C610   1.388       .  A
C605        H612   1.079       .  S
C606        C607   1.420       .  A
C607        C608   1.400       .  A
C607        N614   1.426       .  S
C608        C609   1.401       .  A
C608        H613   1.084       .  S
C609        C610   1.392       .  A
C610        N611   1.429       .  S
N611        O615   1.262       .  A
N611        O616   1.262       .  A
N614        O618   1.262       .  A
N614        O617   1.261       .  A
C619        C620   1.410       .  A
C619        C624   1.405       .  A
C619        H626   1.080       .  S
C620        C621   1.390       .  A
C621        C622   1.382       .  A
C621        N628   1.432   1_455  S
C622        C623   1.421       .  A
C622        H627   1.076       .  S
C623        C624   1.413       .  A
C624        N625   1.429       .  S
N625        O629   1.262       .  A
N625        O630   1.260       .  A
N628        O632   1.262       .  A
N628        O631   1.262       .  A
C633        C634   1.398       .  A
C633        C638   1.395       .  A
C633        H640   1.085       .  S
C634        C635   1.394       .  A
C635        C636   1.381       .  A
C635        N642   1.431       .  S
C636        C637   1.415       .  A
C636        H641   1.074       .  S
C637        C638   1.424       .  A
C638        N639   1.431       .  S
N639        O643   1.262       .  A
N639        O644   1.262       .  A
N642        O646   1.262       .  A
N642        O645   1.262       .  A
C647        C648   1.413       .  A
C647        C652   1.383       .  A
C647        H654   1.075       .  S
C648        C649   1.429       .  A
C649        C650   1.396       .  A
C649        N656   1.427       .  S
C650        C651   1.395       .  A
C650        H655   1.085       .  S
C651        C652   1.390       .  A
C652        N653   1.429       .  S
N653        O657   1.262       .  A
N653        O658   1.262       .  A
N656        O660   1.262       .  A
N656        O659   1.262       .  A
C661        C662   1.419       .  A
C661        C666   1.385       .  A
C661        H668   1.082       .  S
C662        C663   1.412       .  A
C663        C664   1.411       .  A
C663        N670   1.437       .  S
C664        C665   1.412       .  A
C664        H669   1.083       .  S
C665        C666   1.390       .  A
C666        N667   1.430       .  S
N667        O671   1.262       .  A
N667        O672   1.262   1_655  A
N670        O674   1.260       .  A
N670        O673   1.262       .  A
C675        C676   1.419       .  A
C675        C680   1.385       .  A
C675        H682   1.079       .  S
C676        C677   1.418       .  A
C677        C678   1.396       .  A
C677        N684   1.425       .  S
C678        C679   1.397       .  A
C678        H683   1.085       .  S
C679        C680   1.391       .  A
C680        N681   1.430       .  S
N681        O685   1.262       .  A
N681        O686   1.262       .  A
N684        O688   1.262       .  A
N684        O687   1.260       .  A
C689        C690   1.403       .  A
C689        C694   1.385       .  A
C689        H696   1.085       .  S
C690        C691   1.410       .  A
C691        C692   1.394       .  A
C691        N698   1.431       .  S
C692        C693   1.413       .  A
C692        H697   1.075       .  S
C693        C694   1.418       .  A
C694        N695   1.428       .  S
N695        O699   1.261       .  A
N695        O700   1.262       .  A
N698        O702   1.262   1_554  A
N698        O701   1.263       .  A
