geometry optimzed in LAMMPS
_audit_creation_date              2020-12-01 
_audit_creation_method            'lammps2cif' 
_symmetry_space_group_name_H-M    'P1' 
_symmetry_Int_Tables_number       1 
_symmetry_cell_setting            triclinic 
loop_ 
_symmetry_equiv_pos_as_xyz 
  x,y,z 
_cell_length_a                    59.3166894 
_cell_length_b                    59.43517309563434 
_cell_length_c                    47.82829351562893 
_cell_angle_alpha                 89.72776534715297 
_cell_angle_beta                  90.10052717269298 
_cell_angle_gamma                 120.56448964036242 
loop_ 
_atom_site_label 
_atom_site_type_symbol 
_atom_site_fract_x 
_atom_site_fract_y 
_atom_site_fract_z 
_atom_site_charge 
O1          O  0.64085233  0.10578941  0.10747350    -0.57500
C2          C  0.71702600  0.16162483  0.04839176     0.75100
O3          O  0.69524296  0.13242669  0.14172335    -0.58700
C4          C  0.63940222  0.12605951  0.10325792     0.75100
C5          C  0.66669870  0.07489630  0.06293716     0.77500
Cd6        Cd  0.68581774  0.12463968  0.09073137     1.37500
O7          O  0.69846246  0.16285541  0.05994690    -0.57500
O8          O  0.67502442  0.07778811  0.08789079    -0.56300
C9          C  0.71984074  0.14324852  0.13957536     0.77400
O10         O  0.66731184  0.09449859  0.05182230    -0.58700
O11         O  0.72070450  0.14345072  0.05654016    -0.57200
O12         O  0.65965167  0.14585915  0.09349263    -0.57200
O13         O  0.72840316  0.14331390  0.11540908    -0.56300
O14         O  0.53396253  0.87260976  0.41834997    -0.57500
C15         C  0.56927101  0.83761095  0.44625936     0.75100
O16         O  0.60718627  0.87198563  0.37792440    -0.58700
C17         C  0.53312438  0.88429764  0.39649567     0.75100
C18         C  0.61071550  0.92801187  0.44238478     0.77500
Cd19       Cd  0.57833839  0.88023789  0.41027014     1.37500
O20         O  0.55104824  0.84218664  0.44085372    -0.57500
O21         O  0.59554098  0.90595675  0.45314718    -0.56300
C22         C  0.58936379  0.85989322  0.35985126     0.77400
O23         O  0.61241530  0.92847533  0.41589775    -0.58700
O24         O  0.59101037  0.85217836  0.43432869    -0.57200
O25         O  0.55334732  0.89451597  0.38114111    -0.57200
O26         O  0.56802244  0.85918036  0.36431364    -0.56300
O27         O  0.45080255  0.15955290  0.19647814    -0.57500
C28         C  0.47305252  0.12420475  0.14725565     0.75100
O29         O  0.39252653  0.07546669  0.16807229    -0.58700
C30         C  0.43073295  0.16014834  0.20441287     0.75100
C31         C  0.40991694  0.13930337  0.11380594     0.77500
Cd32       Cd  0.42606271  0.12309697  0.16329538     1.37500
O33         O  0.47304610  0.14481401  0.15398199    -0.57500
O34         O  0.39485045  0.13046933  0.13478119    -0.56300
C35         C  0.39817532  0.07449400  0.19352665     0.77400
O36         O  0.43042771  0.13790957  0.11500172    -0.58700
O37         O  0.45124627  0.10300244  0.14823256    -0.57200
O38         O  0.40934346  0.14430567  0.19270905    -0.57200
O39         O  0.41595653  0.09558262  0.20400078    -0.56300
O40         O  0.29235637  0.82755755  0.31857357    -0.57500
C41         C  0.36200802  0.87460739  0.35533348     0.75100
O42         O  0.32546372  0.91501002  0.34242320    -0.58700
C43         C  0.27118258  0.82698302  0.31265880     0.75100
C44         C  0.28169203  0.84802744  0.39969912     0.77500
Cd45       Cd  0.31024011  0.86728008  0.34767775     1.37500
O46         O  0.35342057  0.88604815  0.37047026    -0.57500
O47         O  0.27925743  0.86437109  0.38478929    -0.56300
C48         C  0.32419346  0.91412330  0.31590975     0.77400
O49         O  0.29850601  0.84239320  0.39163896    -0.58700
O50         O  0.34671115  0.85972538  0.33645483    -0.57200
O51         O  0.26792885  0.84441209  0.32373821    -0.57200
O52         O  0.31572073  0.89194125  0.30506887    -0.56300
O53         O  0.29735685  0.46828823  0.28741074    -0.57500
C54         C  0.35281395  0.48967828  0.24468233     0.75100
O55         O  0.32552406  0.41121171  0.25522728    -0.58700
C56         C  0.27443397  0.44995091  0.29311197     0.75100
C57         C  0.27398270  0.42278455  0.20485197     0.77500
Cd58       Cd  0.30606322  0.44040144  0.25518358     1.37500
O59         O  0.33208319  0.48214045  0.23069449    -0.57500
O60         O  0.26501940  0.41284346  0.22860432    -0.56300
C61         C  0.32195379  0.40609720  0.28118229     0.77400
O62         O  0.29839225  0.43875803  0.20377837    -0.58700
O63         O  0.35168111  0.47471531  0.26422290    -0.57200
O64         O  0.26682410  0.42855456  0.28075933    -0.57200
O65         O  0.31016055  0.41558707  0.29403370    -0.56300
O66         O  0.48399383  0.33554756  0.41124262    -0.57500
C67         C  0.43648228  0.27012665  0.36634457     0.75100
O68         O  0.44477120  0.27057420  0.44032698    -0.58700
C69         C  0.48389664  0.34729748  0.43320996     0.75100
C70         C  0.40669916  0.32144895  0.38791904     0.77500
Cd71       Cd  0.43739344  0.30096088  0.41306006     1.37500
O72         O  0.45782874  0.28911029  0.37525415    -0.57500
O73         O  0.42796054  0.32487387  0.37803945    -0.56300
C74         C  0.42602272  0.26313025  0.45737991     0.77400
O75         O  0.39911691  0.30863439  0.41069567    -0.58700
O76         O  0.41590571  0.26537483  0.37931685    -0.57200
O77         O  0.46227006  0.33756711  0.44606283    -0.57200
O78         O  0.41167100  0.27312069  0.45413564    -0.56300
O79         O  0.65910748  0.50837642  0.98708121    -0.57500
C80         C  0.71716714  0.55009919  0.04340592     0.75100
O81         O  0.71389744  0.58533681  0.45745549    -0.58700
C82         C  0.64668966  0.51429307  0.48990514     0.75100
C83         C  0.67480599  0.59169850  0.02843655     0.77500
Cd84       Cd  0.68634899  0.55535778  0.00043981     1.37500
O85         O  0.69582857  0.53017752  0.03580625    -0.57500
O86         O  0.67973684  0.57599489  0.04108130    -0.56300
C87         C  0.72967781  0.57681227  0.45779626     0.77400
O88         O  0.67560437  0.59134561  0.00192684    -0.58700
O89         O  0.72324074  0.57150406  0.03149984    -0.57200
O90         O  0.65372067  0.52100395  0.51499279    -0.57200
O91         O  0.72825810  0.56333299  0.47890336    -0.56300
O92         O  0.54180219  0.65794887  0.19525525    -0.57500
C93         C  0.56187865  0.72574654  0.11868534     0.75100
O94         O  0.59332177  0.72826920  0.20403621    -0.58700
C95         C  0.51976522  0.64959498  0.18367053     0.75100
C96         C  0.59818348  0.68078947  0.13787954     0.77500
Cd97       Cd  0.56539501  0.69750021  0.16530286     1.37500
O98         O  0.58340704  0.73203450  0.13054644    -0.57500
O99         O  0.58089458  0.68344805  0.12544794    -0.56300
C100        C  0.57784450  0.73669699  0.20863158     0.77400
O101        O  0.60078710  0.68586870  0.16385456    -0.58700
O102        O  0.54143626  0.70642287  0.12891353    -0.57200
O103        O  0.51910675  0.66313334  0.16357396    -0.57200
O104        O  0.55736807  0.72674626  0.19386849    -0.56300
O105        O  0.82287250  0.28560902  0.37241759    -0.57500
C106        C  0.85707281  0.34362085  0.32027557     0.75100
O107        O  0.89957381  0.33286669  0.35889923    -0.58700
C108        C  0.82930473  0.27288158  0.38859627     0.75100
C109        C  0.83317235  0.25913708  0.29518455     0.77500
Cd110      Cd  0.85882638  0.29824875  0.33893218     1.37500
O111        O  0.84832512  0.33303726  0.34386934    -0.57500
O112        O  0.85780097  0.27452671  0.29456276    -0.56300
C113        C  0.91116027  0.32010360  0.36179577     0.77400
O114        O  0.82141880  0.26165082  0.31583897    -0.58700
O115        O  0.86634629  0.33297845  0.30485270    -0.57200
O116        O  0.84942846  0.27196567  0.38182554    -0.57200
O117        O  0.89954865  0.29722901  0.35165157    -0.56300
O118        O  0.16351407  0.46285211  0.46521579    -0.57500
C119        C  0.14017503  0.48654076  0.02443493     0.75100
O120        O  0.08500542  0.42667619  0.48356266    -0.58700
C121        C  0.15996145  0.44377783  0.45032757     0.75100
C122        C  0.16184786  0.42554650  0.04859642     0.77500
Cd123      Cd  0.13569661  0.43850578  0.00505348     1.37500
O124        O  0.15073136  0.48522491  0.00198955    -0.57500
O125        O  0.17359300  0.44079966  0.02835982    -0.56300
C126        C  0.07475160  0.40246763  0.47935305     0.77400
O127        O  0.13713276  0.41546382  0.04908289    -0.58700
O128        O  0.12806515  0.46564130  0.03866800    -0.57200
O129        O  0.14164597  0.42139485  0.45779031    -0.57200
O130        O  0.08862385  0.39263024  0.48594800    -0.56300
O131        O  0.14066363  0.65492151  0.10907944    -0.57500
C132        C  0.16098432  0.72043479  0.15101553     0.75100
O133        O  0.13424184  0.71709972  0.05821812    -0.58700
C134        C  0.13866659  0.64828654  0.08366127     0.75100
C135        C  0.07912836  0.66725620  0.11964529     0.77500
Cd136      Cd  0.13336067  0.69191934  0.10142529     1.37500
O137        O  0.16614399  0.70468526  0.13891363    -0.57500
O138        O  0.09177713  0.65542513  0.11913352    -0.56300
C139        C  0.15906943  0.72982929  0.05653365     0.77400
O140        O  0.09063778  0.69008461  0.10922133    -0.58700
O141        O  0.14300429  0.72307411  0.14018875    -0.57200
O142        O  0.13437700  0.66189036  0.06635061    -0.57200
O143        O  0.17108861  0.72510908  0.07538038    -0.56300
O144        O  0.82097985  0.53270418  0.21922195    -0.57500
C145        C  0.85189737  0.50493649  0.26694852     0.75100
O146        O  0.90122320  0.59607176  0.24253832    -0.58700
C147        C  0.82836721  0.55227810  0.20321334     0.75100
C148        C  0.83605884  0.56931287  0.29829581     0.77500
Cd149      Cd  0.85811349  0.55470872  0.25195043     1.37500
O150        O  0.84663871  0.50944886  0.24263695    -0.57500
O151        O  0.82619616  0.56414327  0.27407526    -0.56300
C152        C  0.91196314  0.58429006  0.23196665     0.77400
O153        O  0.85719616  0.56910813  0.30119997    -0.58700
O154        O  0.85864089  0.52295660  0.28473021    -0.57200
O155        O  0.84932597  0.57289810  0.20994856    -0.57200
O156        O  0.89861299  0.55967301  0.23273571    -0.56300
C157        C  0.93798729  0.59798080  0.21803377    -0.01000
C158        C  0.95134676  0.62503259  0.21347471    -0.09000
C159        C  0.97420197  0.63725180  0.19722084    -0.17900
C160        C  0.98443500  0.62267893  0.18486512     0.04500
C161        C  0.97140637  0.59541956  0.19062739     0.18700
C162        C  0.94851977  0.58344594  0.20695234    -0.19300
C163        C  0.98104139  0.58011666  0.17972961    -0.20600
C164        C  0.00345289  0.59129006  0.16323718    -0.19100
C165        C  0.01657619  0.61798474  0.15678898     0.20100
C166        C  0.00707783  0.63404728  0.16710434     0.02200
C167        C  0.02060110  0.66068949  0.15898724    -0.13800
C168        C  0.04314434  0.67108540  0.14233101    -0.11500
C169        C  0.05309408  0.65541734  0.13337225     0.01800
C170        C  0.03940084  0.62876052  0.14034782    -0.23700
H171        H  0.94372888  0.63673783  0.22188308     0.09800
H172        H  0.98332221  0.65809737  0.19453424     0.13300
H173        H  0.93850296  0.56250937  0.21046706     0.12100
H174        H  0.97121342  0.55932977  0.18408265     0.13200
H175        H  0.01051434  0.57891421  0.15535910     0.12300
H176        H  0.01431788  0.67401952  0.16531618     0.09400
H177        H  0.05337711  0.69174000  0.13730339     0.12600
H178        H  0.04682922  0.61639972  0.13340060     0.14500
C179        C  0.14159275  0.51113182  0.03308750    -0.01000
C180        C  0.14997271  0.53184020  0.01401973    -0.09000
C181        C  0.15062679  0.55486665  0.02141874    -0.17900
C182        C  0.14305315  0.55808694  0.04843944     0.04500
C183        C  0.13507843  0.53720876  0.06792791     0.18700
C184        C  0.13418221  0.51397541  0.06005438    -0.19300
C185        C  0.12797149  0.53960422  0.09515527    -0.20600
C186        C  0.12844542  0.56223097  0.10346807    -0.19100
C187        C  0.13564105  0.58290686  0.08465091     0.20100
C188        C  0.14296368  0.58114513  0.05680129     0.02200
C189        C  0.14939719  0.60235924  0.03846670    -0.13800
C190        C  0.14806468  0.62405270  0.04728435    -0.11500
C191        C  0.14086542  0.62565601  0.07473040     0.01800
C192        C  0.13507840  0.60517491  0.09342344    -0.23700
H193        H  0.13902026  0.52404155  0.48183911     0.09800
H194        H  0.14103130  0.56385261  0.49488004     0.13300
H195        H  0.12779401  0.49810759  0.07501186     0.12100
H196        H  0.12199076  0.52384407  0.11015912     0.13200
H197        H  0.12279574  0.56342329  0.12470211     0.12300
H198        H  0.15506484  0.60260090  0.01703342     0.09400
H199        H  0.15276610  0.63972452  0.03252859     0.12600
H200        H  0.12931636  0.60620574  0.11466853     0.14500
C201        C  0.85654139  0.36721296  0.31143130    -0.01000
C202        C  0.85754986  0.37358923  0.28308523    -0.09000
C203        C  0.85650832  0.39560645  0.27469417    -0.17900
C204        C  0.85475636  0.41223080  0.29458507     0.04500
C205        C  0.85421034  0.40584699  0.32336846     0.18700
C206        C  0.85493674  0.38347777  0.33145023    -0.19300
C207        C  0.85281549  0.42173748  0.34397136    -0.20600
C208        C  0.85171878  0.44380643  0.33665141    -0.19100
C209        C  0.85198251  0.45054543  0.30854254     0.20100
C210        C  0.85349933  0.43488879  0.28704567     0.02200
C211        C  0.85365176  0.44262566  0.25899058    -0.13800
C212        C  0.85238368  0.46491059  0.25263975    -0.11500
C213        C  0.85119285  0.48036308  0.27391636     0.01800
C214        C  0.85093946  0.47303085  0.30182816    -0.23700
H215        H  0.85875718  0.36125912  0.26726433     0.09800
H216        H  0.85710480  0.39904218  0.25250503     0.13300
H217        H  0.85442715  0.37879739  0.35347050     0.12100
H218        H  0.85250664  0.41702495  0.36593940     0.13200
H219        H  0.85061808  0.45568036  0.35312017     0.12300
H220        H  0.85482757  0.43195751  0.24146249     0.09400
H221        H  0.85293159  0.47039644  0.23090849     0.07800
H222        H  0.85004989  0.48494128  0.31841105     0.14500
C223        C  0.04865777  0.38738587  0.46590928    -0.01000
C224        C  0.03869786  0.36163628  0.45680792    -0.09000
C225        C  0.01603533  0.34923968  0.44024287    -0.17900
C226        C  0.00277137  0.36242622  0.43205213     0.04500
C227        C  0.01236722  0.38805801  0.44259685     0.18700
C228        C  0.03480535  0.40003552  0.45942044    -0.19300
C229        C  0.00003852  0.40206343  0.43563502    -0.20600
C230        C  0.97854407  0.39139997  0.41796487    -0.19100
C231        C  0.96880210  0.36644511  0.40677290     0.20100
C232        C  0.98063425  0.35146164  0.41359275     0.02200
C233        C  0.96985033  0.32638555  0.40138297    -0.13800
C234        C  0.94790916  0.31648022  0.38376575    -0.11500
C235        C  0.93612809  0.33125441  0.37762823     0.01800
C236        C  0.94702017  0.35636131  0.38897724    -0.23700
H237        H  0.04894581  0.35135902  0.46167802     0.09800
H238        H  0.00969430  0.32957607  0.43363987     0.13300
H239        H  0.04213910  0.41986833  0.46655408     0.12100
H240        H  0.00725934  0.42157655  0.44369073     0.13200
H241        H  0.96953192  0.40284807  0.41289688     0.12300
H242        H  0.97781127  0.31390023  0.40527549     0.09400
H243        H  0.93981401  0.29697416  0.37539624     0.12600
H244        H  0.93810496  0.36801916  0.38447757     0.14500
C245        C  0.73450398  0.54910862  0.06498026    -0.01000
C246        C  0.75987718  0.57055755  0.06796367    -0.09000
C247        C  0.77641785  0.57113097  0.08895193    -0.17900
C248        C  0.76802769  0.55022221  0.10811215     0.04500
C249        C  0.74239535  0.52819685  0.10475496     0.18700
C250        C  0.72600891  0.52769591  0.08310629    -0.19300
C251        C  0.73309938  0.50712475  0.12342977    -0.20600
C252        C  0.74846257  0.50769094  0.14574512    -0.19100
C253        C  0.77358735  0.52925642  0.14984252     0.20100
C254        C  0.78390715  0.55068841  0.13084840     0.02200
C255        C  0.80950878  0.57186217  0.13576826    -0.13800
C256        C  0.82381391  0.57212277  0.15905594    -0.11500
C257        C  0.81331895  0.55126586  0.17808315     0.01800
C258        C  0.78833360  0.52969291  0.17309956    -0.23700
H259        H  0.76703062  0.58724327  0.05404229     0.09800
H260        H  0.79549407  0.58849100  0.08983974     0.13300
H261        H  0.70639004  0.51099896  0.08091054     0.12100
H262        H  0.71363594  0.49025358  0.12102608     0.13200
H263        H  0.74052364  0.49123465  0.16007968     0.12300
H264        H  0.81903996  0.58866576  0.12218693     0.09400
H265        H  0.84321555  0.58886176  0.16222521     0.12600
H266        H  0.78011236  0.51337679  0.18764284     0.14500
C267        C  0.82297959  0.57457993  0.32177240    -0.01000
C268        C  0.80345764  0.58064610  0.31617725    -0.09000
C269        C  0.78961507  0.58395895  0.33784317    -0.17900
C270        C  0.79447150  0.58081693  0.36613385     0.04500
C271        C  0.81431485  0.57465913  0.37178763     0.18700
C272        C  0.82855425  0.57198029  0.34973593    -0.19300
C273        C  0.81933066  0.57051247  0.39937936    -0.20600
C274        C  0.80450571  0.57146243  0.42138684    -0.19100
C275        C  0.78452920  0.57700417  0.41646967     0.20100
C276        C  0.77973273  0.58258334  0.38890564     0.02200
C277        C  0.76001697  0.58914037  0.38537233    -0.13800
C278        C  0.74463083  0.58848709  0.40793080    -0.11500
C279        C  0.74827966  0.58124310  0.43469277     0.01800
C280        C  0.76880504  0.57625304  0.43889363    -0.23700
H281        H  0.79866574  0.58266277  0.29479622     0.09800
H282        H  0.77474161  0.58830094  0.33171247     0.13300
H283        H  0.84335304  0.56692487  0.35432508     0.12100
H284        H  0.83442303  0.56586778  0.40392073     0.13200
H285        H  0.80847165  0.56747863  0.44239821     0.12300
H286        H  0.75577512  0.59452276  0.36534904     0.09400
H287        H  0.72915569  0.59273266  0.40417480     0.12600
H288        H  0.77215977  0.57109323  0.45963469     0.14500
C289        C  0.61385168  0.67176399  0.12249627    -0.01000
C290        C  0.62819636  0.66253761  0.13673537    -0.09000
C291        C  0.64081471  0.65169741  0.12209821    -0.17900
C292        C  0.63948224  0.64975386  0.09253331     0.04500
C293        C  0.62613701  0.66050896  0.07813680     0.18700
C294        C  0.61347301  0.67123690  0.09312360    -0.19300
C295        C  0.62490988  0.65989621  0.04887564    -0.20600
C296        C  0.63578666  0.64789361  0.03355440    -0.19100
C297        C  0.64792679  0.63592493  0.04709561     0.20100
C298        C  0.65025418  0.63697164  0.07677875     0.02200
C299        C  0.66240204  0.62432599  0.08943576    -0.13800
C300        C  0.67088127  0.61042240  0.07348090    -0.11500
C301        C  0.66792590  0.60879032  0.04433395     0.01800
C302        C  0.65698419  0.62216260  0.03118862    -0.23700
H303        H  0.62905773  0.66300235  0.15936305     0.09800
H304        H  0.65114883  0.64470013  0.13456839     0.13300
H305        H  0.60280732  0.67875380  0.08182152     0.12100
H306        H  0.61504234  0.66836492  0.03775563     0.13200
H307        H  0.63407668  0.64737549  0.01097031     0.12300
H308        H  0.66502769  0.62419998  0.11171210     0.09400
H309        H  0.67943825  0.60045572  0.08420569     0.12600
H310        H  0.65457293  0.62102390  0.00866789     0.14500
C311        C  0.50768107  0.37127366  0.44300988    -0.01000
C312        C  0.50811490  0.38221460  0.46904505    -0.09000
C313        C  0.53034053  0.40523836  0.47794106    -0.17900
C314        C  0.55290182  0.41830169  0.46081890     0.04500
C315        C  0.55218036  0.40720806  0.43430836     0.18700
C316        C  0.52993356  0.38380037  0.42591396    -0.19300
C317        C  0.57352534  0.41972501  0.41606597    -0.20600
C318        C  0.59556283  0.44324117  0.42339687    -0.19100
C319        C  0.59713528  0.45452112  0.44947100     0.20100
C320        C  0.57602439  0.44205147  0.46879803     0.02200
C321        C  0.57917556  0.45381343  0.49529306    -0.13800
C322        C  0.60223809  0.47693361  0.50217335    -0.11500
C323        C  0.62267857  0.48938833  0.48279316     0.01800
C324        C  0.61988447  0.47813539  0.45640224    -0.23700
H325        H  0.49114550  0.37296581  0.48262440     0.09800
H326        H  0.52910140  0.41255413  0.49810510     0.13300
H327        H  0.52975931  0.37561603  0.40564348     0.12100
H328        H  0.57305206  0.41141595  0.39579640     0.13200
H329        H  0.61162529  0.45255778  0.40863678     0.12300
H330        H  0.56432264  0.44544120  0.51127743     0.09400
H331        H  0.60392782  0.48532823  0.52267007     0.12600
H332        H  0.63569988  0.48756096  0.44134780     0.14500
C333        C  0.17642295  0.44718247  0.42574425    -0.01000
C334        C  0.19900443  0.47121060  0.41984135    -0.09000
C335        C  0.21519931  0.47372933  0.39733246    -0.17900
C336        C  0.20911509  0.45215237  0.37996764     0.04500
C337        C  0.18568880  0.42811590  0.38572694     0.18700
C338        C  0.16980286  0.42587895  0.40837630    -0.19300
C339        C  0.17825066  0.40620393  0.36907131    -0.20600
C340        C  0.19373135  0.40743049  0.34685874    -0.19100
C341        C  0.21720921  0.43048057  0.34104227     0.20100
C342        C  0.22540386  0.45327326  0.35736107     0.02200
C343        C  0.24976091  0.47577658  0.35065469    -0.13800
C344        C  0.26556201  0.47519654  0.32922785    -0.11500
C345        C  0.25734652  0.45236357  0.31375328     0.01800
C346        C  0.23287334  0.43041973  0.31937727    -0.23700
H347        H  0.20441500  0.48802546  0.43293858     0.09800
H348        H  0.23234035  0.49270254  0.39411305     0.13300
H349        H  0.15222324  0.40728303  0.41262430     0.12100
H350        H  0.16037135  0.38790353  0.37335043     0.13200
H351        H  0.18751697  0.39003236  0.33443933     0.12300
H352        H  0.25738725  0.49381766  0.36203368     0.09400
H353        H  0.28444759  0.49242967  0.32518663     0.12600
H354        H  0.22627324  0.41265913  0.30746758     0.14500
C355        C  0.25662373  0.41745023  0.18024245    -0.01000
C356        C  0.22932043  0.40239913  0.18315854    -0.09000
C357        C  0.21268285  0.40072360  0.16140883    -0.17900
C358        C  0.22286396  0.41424707  0.13586744     0.04500
C359        C  0.25055781  0.42821806  0.13245833     0.18700
C360        C  0.26703852  0.42972396  0.15449246    -0.19300
C361        C  0.26174117  0.44132386  0.10735278    -0.20600
C362        C  0.24612173  0.44164091  0.08584322    -0.19100
C363        C  0.21891578  0.42920475  0.08900474     0.20100
C364        C  0.20675962  0.41506327  0.11389778     0.02200
C365        C  0.17917599  0.40322803  0.11597514    -0.13800
C366        C  0.16451381  0.40606278  0.09462899    -0.11500
C367        C  0.17674354  0.42057905  0.07045844     0.01800
C368        C  0.20392676  0.43158857  0.06765345    -0.23700
H369        H  0.22069911  0.39257802  0.20275076     0.09800
H370        H  0.19195054  0.38911487  0.16540378     0.13300
H371        H  0.28810542  0.44133035  0.15188936     0.12100
H372        H  0.28279337  0.45178780  0.10448604     0.13200
H373        H  0.25548571  0.45231557  0.06684076     0.12300
H374        H  0.16845304  0.39219835  0.13413801     0.09400
H375        H  0.14357266  0.39729492  0.09733465     0.12600
H376        H  0.21368093  0.44276108  0.04901298     0.14500
C377        C  0.49591660  0.62563781  0.19323310    -0.01000
C378        C  0.49611494  0.61275129  0.21772891    -0.09000
C379        C  0.47322306  0.59087395  0.22748350    -0.17900
C380        C  0.44928466  0.58112144  0.21287140     0.04500
C381        C  0.44939689  0.59403162  0.18771390     0.18700
C382        C  0.47250995  0.61599975  0.17823431    -0.19300
C383        C  0.42641715  0.58506996  0.17216582    -0.20600
C384        C  0.40317707  0.56348271  0.18104566    -0.19100
C385        C  0.40234255  0.55035723  0.20571420     0.20100
C386        C  0.42530323  0.55900189  0.22212741     0.02200
C387        C  0.42320588  0.54500898  0.24695468    -0.13800
C388        C  0.39953948  0.52291232  0.25456887    -0.11500
C389        C  0.37721298  0.51420767  0.23791295     0.01800
C390        C  0.37866346  0.52831145  0.21379085    -0.23700
H391        H  0.51399005  0.61981541  0.22965551     0.09800
H392        H  0.47492208  0.58210673  0.24653013     0.13300
H393        H  0.47219797  0.62575048  0.15913871     0.12100
H394        H  0.42642074  0.59481660  0.15295057     0.13200
H395        H  0.38573410  0.55695062  0.16846162     0.12300
H396        H  0.43951843  0.55044738  0.26078439     0.09400
H397        H  0.39882646  0.51239382  0.27342219     0.12600
H398        H  0.36144427  0.52172605  0.20079646     0.14500
C399        C  0.33163919  0.39075501  0.29632082    -0.01000
C400        C  0.32339700  0.38227050  0.32383247    -0.09000
C401        C  0.33394610  0.36981975  0.33941353    -0.17900
C402        C  0.35351793  0.36566074  0.32807611     0.04500
C403        C  0.36162197  0.37406133  0.30002928     0.18700
C404        C  0.35051613  0.38619656  0.28443447    -0.19300
C405        C  0.38117003  0.37078422  0.28783583    -0.20600
C406        C  0.39311820  0.35965761  0.30291347    -0.19100
C407        C  0.38574440  0.35133483  0.33055251     0.20100
C408        C  0.36566066  0.35389939  0.34356955     0.02200
C409        C  0.35887227  0.34472451  0.37149855    -0.13800
C410        C  0.37177841  0.33383491  0.38585527    -0.11500
C411        C  0.39195870  0.33195281  0.37299090     0.01800
C412        C  0.39860440  0.34060968  0.34525437    -0.23700
H413        H  0.30885446  0.38556011  0.33357783     0.09800
H414        H  0.32670844  0.36408555  0.36043913     0.13300
H415        H  0.35723151  0.39288247  0.26328988     0.12100
H416        H  0.38748388  0.37713593  0.26653304     0.13200
H417        H  0.40837081  0.35765025  0.29288009     0.12300
H418        H  0.34371464  0.34573454  0.38280443     0.09400
H419        H  0.36620196  0.32722536  0.40722103     0.12600
H420        H  0.41398565  0.33900704  0.33492309     0.14500
C421        C  0.26498755  0.83492752  0.42436564    -0.01000
C422        C  0.23902433  0.82930549  0.42514725    -0.09000
C423        C  0.22193244  0.81343627  0.44631231    -0.17900
C424        C  0.23048701  0.80295468  0.46769472     0.04500
C425        C  0.25730264  0.81001658  0.46755252     0.18700
C426        C  0.27405877  0.82549805  0.44586455    -0.19300
C427        C  0.26719012  0.80117863  0.48876361    -0.20600
C428        C  0.24200922  0.78508807  0.00739543    -0.19100
C429        C  0.21533434  0.77652447  0.00966930     0.20100
C430        C  0.21350704  0.78554548  0.48901091     0.02200
C431        C  0.18621562  0.77601154  0.49002210    -0.13800
C432        C  0.17035946  0.75834273  0.51088006    -0.11500
C433        C  0.17379276  0.74902771  0.03388219     0.01800
C434        C  0.20071171  0.75871644  0.03096409    -0.23700
H435        H  0.23157264  0.83628825  0.40863516     0.09800
H436        H  0.20210479  0.80952205  0.44525974     0.13300
H437        H  0.29419230  0.82991200  0.44546573     0.12100
H438        H  0.28764869  0.80671339  0.48894175     0.13200
H439        H  0.25130123  0.77826137  0.02192913     0.12300
H440        H  0.17651139  0.78152242  0.47472704     0.09400
H441        H  0.14954496  0.75125886  0.51078795     0.12600
H442        H  0.21040931  0.75209020  0.04520254     0.14500
C443        C  0.25180900  0.80788286  0.29279151    -0.01000
C444        C  0.22814570  0.80714112  0.28764694    -0.09000
C445        C  0.21150505  0.79181702  0.26609509    -0.17900
C446        C  0.21823618  0.77690945  0.24873594     0.04500
C447        C  0.24144196  0.77650776  0.25529186     0.18700
C448        C  0.25781990  0.79179366  0.27714470    -0.19300
C449        C  0.24867679  0.76147335  0.23945916    -0.20600
C450        C  0.23368860  0.74719192  0.21679152    -0.19100
C451        C  0.21129946  0.74789279  0.20910859     0.20100
C452        C  0.20318207  0.76278004  0.22486052     0.02200
C453        C  0.18087167  0.76343515  0.21544673    -0.13800
C454        C  0.16727881  0.74981819  0.19148470    -0.11500
C455        C  0.17527317  0.73493539  0.17633817     0.01800
C456        C  0.19724369  0.73403509  0.18540031    -0.23700
H457        H  0.22278585  0.81902951  0.29983750     0.09800
H458        H  0.19376767  0.79238341  0.26322844     0.13300
H459        H  0.27591232  0.79198236  0.28118456     0.12100
H460        H  0.26624691  0.76097307  0.24446260     0.13200
H461        H  0.23995173  0.73588237  0.20484024     0.12300
H462        H  0.17370416  0.77460732  0.22589009     0.09400
H463        H  0.15039277  0.75090605  0.18482883     0.12600
H464        H  0.20372638  0.72276884  0.17368567     0.14500
C465        C  0.43167883  0.17778108  0.22659810    -0.01000
C466        C  0.40837985  0.17592392  0.23573597    -0.09000
C467        C  0.40836626  0.19109807  0.25779404    -0.17900
C468        C  0.43184572  0.20879276  0.27160365     0.04500
C469        C  0.45563708  0.21147786  0.26148546     0.18700
C470        C  0.45533754  0.19584899  0.23932976    -0.19300
C471        C  0.47952355  0.22962795  0.27366275    -0.20600
C472        C  0.48028247  0.24506205  0.29584721    -0.19100
C473        C  0.45712516  0.24226461  0.30685903     0.20100
C474        C  0.43253656  0.22387733  0.29507127     0.02200
C475        C  0.40965588  0.22098756  0.30767185    -0.13800
C476        C  0.41116065  0.23591570  0.33074757    -0.11500
C477        C  0.43540877  0.25435842  0.34199305     0.01800
C478        C  0.45836226  0.25750731  0.32986870    -0.23700
H479        H  0.38986139  0.16234685  0.22602848     0.09800
H480        H  0.38963102  0.18854214  0.26342181     0.13300
H481        H  0.47350661  0.19761922  0.23215734     0.12100
H482        H  0.49775873  0.23194163  0.26594365     0.13200
H483        H  0.49909887  0.25899794  0.30475073     0.12300
H484        H  0.39024086  0.20706163  0.30054195     0.09400
H485        H  0.39313296  0.23301208  0.33978983     0.12600
H486        H  0.47722600  0.27159063  0.33858582     0.14500
C487        C  0.42168518  0.24391448  0.47977459    -0.01000
C488        C  0.38981208  0.23113662  0.00519514    -0.09000
C489        C  0.38746416  0.21327014  0.02599274    -0.17900
C490        C  0.40408371  0.20257579  0.02622840     0.04500
C491        C  0.42282085  0.21020675  0.00437405     0.18700
C492        C  0.43677242  0.23184695  0.48016032    -0.19300
C493        C  0.43969723  0.20028088  0.00314214    -0.20600
C494        C  0.43869860  0.18308362  0.02340983    -0.19100
C495        C  0.42094668  0.17553410  0.04556321     0.20100
C496        C  0.40321774  0.18495266  0.04736864     0.02200
C497        C  0.38598002  0.17674277  0.07057914    -0.13800
C498        C  0.38709013  0.16071033  0.09151331    -0.11500
C499        C  0.40521501  0.15224584  0.08984535     0.01800
C500        C  0.42156205  0.15925030  0.06642919    -0.23700
H501        H  0.37693255  0.23906278  0.00575327     0.09800
H502        H  0.37258278  0.20827557  0.04165613     0.13300
H503        H  0.45113563  0.23633365  0.46384302     0.12100
H504        H  0.46380169  0.20767302  0.48462283     0.13200
H505        H  0.45224174  0.17596118  0.02198286     0.12300
H506        H  0.37195664  0.18297012  0.07348140     0.09400
H507        H  0.37441809  0.15576751  0.10957713     0.12600
H508        H  0.43568944  0.15284501  0.06494142     0.14500
C509        C  0.38524744  0.05032729  0.21062641    -0.01000
C510        C  0.36796914  0.02601089  0.19881627    -0.09000
C511        C  0.35678937  0.00327821  0.21522963    -0.17900
C512        C  0.36256718  0.00425313  0.24414513     0.04500
C513        C  0.37972705  0.02911040  0.25600317     0.18700
C514        C  0.39085759  0.05165806  0.23927851    -0.19300
C515        C  0.38583806  0.03141027  0.28451152    -0.20600
C516        C  0.37527932  0.00946493  0.30167736    -0.19100
C517        C  0.35856120  0.98461688  0.29071722     0.20100
C518        C  0.35206632  0.98159286  0.26174965     0.02200
C519        C  0.33565048  0.95598481  0.25166603    -0.13800
C520        C  0.32631213  0.93440481  0.26949835    -0.11500
C521        C  0.33270572  0.93748101  0.29800819     0.01800
C522        C  0.34864757  0.96270497  0.30853630    -0.23700
H523        H  0.36328681  0.02449885  0.17675259     0.09800
H524        H  0.34370775  0.98528343  0.20468024     0.13300
H525        H  0.40408491  0.07041396  0.24872012     0.12100
H526        H  0.39889850  0.05036166  0.29363023     0.13200
H527        H  0.38041564  0.01193231  0.32365999     0.12300
H528        H  0.32999923  0.95191915  0.23003142     0.09400
H529        H  0.31412819  0.91508871  0.26078424     0.12600
H530        H  0.35399203  0.96524791  0.33047299     0.14500
C531        C  0.59225312  0.84611726  0.33540145    -0.01000
C532        C  0.61160100  0.83919285  0.33454358    -0.09000
C533        C  0.61164043  0.82291012  0.31331438    -0.17900
C534        C  0.59218802  0.81298907  0.29217580     0.04500
C535        C  0.57340711  0.82114138  0.29256227     0.18700
C536        C  0.57363999  0.83743266  0.31389158    -0.19300
C537        C  0.55389655  0.81239840  0.27211023    -0.20600
C538        C  0.55200453  0.79502067  0.25169069    -0.19100
C539        C  0.56953261  0.78584241  0.25117781     0.20100
C540        C  0.59015340  0.79487246  0.27108065     0.02200
C541        C  0.60729411  0.78485492  0.26920954    -0.13800
C542        C  0.60363788  0.76626412  0.24886794    -0.11500
C543        C  0.58283818  0.75705072  0.22979578     0.01800
C544        C  0.56613773  0.76728216  0.23100550    -0.23700
H545        H  0.62619141  0.84557770  0.35092078     0.09800
H546        H  0.62676780  0.81795950  0.31429074     0.13300
H547        H  0.55866325  0.84276716  0.31417498     0.12100
H548        H  0.53966485  0.81870596  0.27218294     0.13200
H549        H  0.53638406  0.78835102  0.23643152     0.12300
H550        H  0.62349742  0.79082205  0.28337732     0.09400
H551        H  0.61694049  0.75883445  0.24831135     0.12600
H552        H  0.55010996  0.76057365  0.21624290     0.14500
C553        C  0.56595157  0.81716536  0.46629359    -0.01000
C554        C  0.58780928  0.81565735  0.47452150    -0.09000
C555        C  0.58143330  0.79754488  0.00486637    -0.17900
C556        C  0.55961740  0.78266867  0.02249216     0.04500
C557        C  0.53579440  0.78177635  0.01589627     0.18700
C558        C  0.53452732  0.79608523  0.99305036    -0.19300
C559        C  0.51341085  0.76668106  0.03219232    -0.20600
C560        C  0.51410911  0.75227492  0.05484671    -0.19100
C561        C  0.53736928  0.75308619  0.06216748     0.20100
C562        C  0.56057136  0.76861438  0.04633177     0.02200
C563        C  0.58382496  0.76969760  0.05528755    -0.13800
C564        C  0.58397283  0.75582705  0.07875738    -0.11500
C565        C  0.56102303  0.74018982  0.09395558     0.01800
C566        C  0.53768642  0.73871301  0.08546437    -0.23700
H567        H  0.60674198  0.82809960  0.46490573     0.09800
H568        H  0.60360038  0.79885621  0.50117119     0.13300
H569        H  0.51639589  0.79567004  0.98856856     0.12100
H570        H  0.49517194  0.76587601  0.02727201     0.13200
H571        H  0.49639262  0.74063598  0.06690862     0.12300
H572        H  0.60235216  0.78137406  0.04490101     0.09400
H573        H  0.60223260  0.75724245  0.08493631     0.12600
H574        H  0.51988454  0.72679997  0.09732470     0.14500
C575        C  0.50957674  0.88554124  0.38917453    -0.01000
C576        C  0.50228687  0.88482964  0.36118890    -0.09000
C577        C  0.47893471  0.88399679  0.35427228    -0.17900
C578        C  0.46241618  0.88448187  0.37529568     0.04500
C579        C  0.47089163  0.88694930  0.40354003     0.18700
C580        C  0.49389783  0.88680011  0.41022637    -0.19300
C581        C  0.45633023  0.88949538  0.42497551    -0.20600
C582        C  0.43334946  0.88943302  0.41902943    -0.19100
C583        C  0.42374499  0.88568638  0.39165663     0.20100
C584        C  0.43786913  0.88267001  0.36941415     0.02200
C585        C  0.42634010  0.87709070  0.34250484    -0.13800
C586        C  0.40180190  0.87450875  0.33800418    -0.11500
C587        C  0.38831077  0.87810700  0.35989257     0.01800
C588        C  0.39964988  0.88415451  0.38656152    -0.23700
H589        H  0.51433173  0.88414834  0.34459248     0.09800
H590        H  0.47445013  0.88326684  0.33232610     0.13300
H591        H  0.49978893  0.88793022  0.43189762     0.12100
H592        H  0.46284605  0.89170899  0.44650094     0.13200
H593        H  0.42262501  0.89161087  0.43610236     0.12300
H594        H  0.43542571  0.87377466  0.32474524     0.09400
H595        H  0.39334945  0.86972510  0.31725041     0.12600
H596        H  0.38913624  0.88658505  0.40370149     0.14500
C597        C  0.81397019  0.25955576  0.41385233    -0.01000
C598        C  0.78820211  0.25414227  0.41647539    -0.09000
C599        C  0.77323066  0.24094854  0.43987577    -0.17900
C600        C  0.78373047  0.23293711  0.46172177     0.04500
C601        C  0.80996087  0.23851684  0.45893965     0.18700
C602        C  0.82475819  0.25170795  0.43517205    -0.19300
C603        C  0.82116829  0.23065819  0.47974284    -0.20600
C604        C  0.80672322  0.21692909  0.50309649    -0.19100
C605        C  0.78084429  0.21105202  0.50640729     0.20100
C606        C  0.76907882  0.21931896  0.48599875     0.02200
C607        C  0.74311940  0.21348122  0.49077237    -0.13800
C608        C  0.72915584  0.19922591  0.51422091    -0.11500
C609        C  0.73379247  0.18029636  0.02659476     0.01800
C610        C  0.75260393  0.17659693  0.01319605    -0.23700
H611        H  0.77939214  0.25978509  0.40009662     0.09800
H612        H  0.75341539  0.23711954  0.44004719     0.13300
H613        H  0.84474362  0.25587058  0.43325911     0.12100
H614        H  0.84116041  0.23489471  0.47777619     0.13200
H615        H  0.78911426  0.17278462  0.98563218     0.12300
H616        H  0.73292714  0.21949975  0.47671950     0.09400
H617        H  0.70911669  0.19465431  0.51677062     0.12600
H618        H  0.75448504  0.15989587  0.01870017     0.14500
C619        C  0.73767650  0.15641284  0.16351997    -0.01000
C620        C  0.76489785  0.17047409  0.15961675    -0.09000
C621        C  0.78174868  0.18576136  0.18109185    -0.17900
C622        C  0.77185507  0.18765885  0.20732052     0.04500
C623        C  0.74426767  0.17254180  0.21146217     0.18700
C624        C  0.72759566  0.15712464  0.18975931    -0.19300
C625        C  0.73332956  0.17348253  0.23699296    -0.20600
C626        C  0.74904844  0.18973698  0.25827188    -0.19100
C627        C  0.77613866  0.20550755  0.25460815     0.20100
C628        C  0.78810648  0.20447783  0.22930450     0.02200
C629        C  0.81565866  0.22084722  0.22700661    -0.13800
C630        C  0.83043338  0.23811345  0.24852459    -0.11500
C631        C  0.81831917  0.23955403  0.27304052     0.01800
C632        C  0.79119816  0.22277362  0.27600316    -0.23700
H633        H  0.77323528  0.17028634  0.13955110     0.09800
H634        H  0.80237742  0.19631627  0.17632912     0.13300
H635        H  0.70658280  0.14635114  0.19305030     0.12100
H636        H  0.71236613  0.16190996  0.24036213     0.13200
H637        H  0.73985634  0.19032440  0.27760549     0.12300
H638        H  0.82628826  0.22105754  0.20865612     0.09400
H639        H  0.85134574  0.25073523  0.24572009     0.12600
H640        H  0.78154191  0.22351748  0.29491482     0.14500
C641        C  0.49731109  0.12490438  0.13888337    -0.01000
C642        C  0.51975949  0.14874950  0.13240232    -0.09000
C643        C  0.54314540  0.14986102  0.12563075    -0.17900
C644        C  0.54489512  0.12700531  0.12545078     0.04500
C645        C  0.52177691  0.10271066  0.13114855     0.18700
C646        C  0.49830178  0.10187365  0.13769931    -0.19300
C647        C  0.52228097  0.07943305  0.13057176    -0.20600
C648        C  0.54537698  0.07975666  0.12472499    -0.19100
C649        C  0.56857173  0.10338920  0.11961554     0.20100
C650        C  0.56872540  0.12738870  0.11995523     0.02200
C651        C  0.59281573  0.15073929  0.11514673    -0.13800
C652        C  0.61562424  0.15019298  0.10977748    -0.11500
C653        C  0.61526952  0.12649275  0.10925126     0.01800
C654        C  0.59170163  0.10316356  0.11429519    -0.23700
H655        H  0.51929145  0.16673271  0.13264963     0.09800
H656        H  0.55948021  0.16893503  0.12076147     0.13300
H657        H  0.48089931  0.08328952  0.14245526     0.12100
H658        H  0.50470362  0.06084653  0.13476637     0.13200
H659        H  0.54514818  0.06140595  0.12445706     0.12300
H660        H  0.59478591  0.16977189  0.11554824     0.09400
H661        H  0.63369138  0.16848103  0.10618148     0.12600
H662        H  0.59130167  0.08472060  0.11391324     0.14500
C663        C  0.62452250  0.95164861  0.46029871    -0.01000
C664        C  0.62675154  0.94880790  0.48915224    -0.09000
C665        C  0.63659934  0.97026295  0.50712515    -0.17900
C666        C  0.64420283  0.99550551  0.49691468     0.04500
C667        C  0.64248250  0.99844503  0.46753357     0.18700
C668        C  0.63308348  0.97671583  0.44956189    -0.19300
C669        C  0.64937027  0.02292114  0.45634462    -0.20600
C670        C  0.64512041  0.02990714  0.97271925    -0.19100
C671        C  0.64546320  0.02811213  0.00188091     0.20100
C672        C  0.63521486  0.00339036  0.01520723     0.02200
C673        C  0.63658239  0.00297805  0.04482582    -0.13800
C674        C  0.64733035  0.02614050  0.06038893    -0.11500
C675        C  0.65674021  0.05029693  0.04701183     0.01800
C676        C  0.65586248  0.05105044  0.01775137    -0.23700
H677        H  0.62034640  0.92968711  0.49804278     0.09800
H678        H  0.63736351  0.96631226  0.52900829     0.13300
H679        H  0.63124434  0.97913209  0.42734375     0.12100
H680        H  0.64814331  0.02537639  0.43402895     0.13200
H681        H  0.65300470  0.04874412  0.96248296     0.12300
H682        H  0.62948276  0.98510667  0.05653260     0.09400
H683        H  0.64776813  0.02507615  0.08298586     0.12600
H684        H  0.66333557  0.06969563  0.00717626     0.14500
O685        O  0.64761652  0.11525180  0.61626660    -0.57500
C686        C  0.72462214  0.17282032  0.55667986     0.75100
O687        O  0.70108206  0.14946215  0.64612087    -0.58700
C688        C  0.64578419  0.13541295  0.61253446     0.75100
C689        C  0.67622687  0.08624492  0.56631186     0.77500
Cd690      Cd  0.69230031  0.13437956  0.59733974     1.37500
O691        O  0.70095971  0.16646174  0.56033209    -0.57500
O692        O  0.68168341  0.08753409  0.59216819    -0.56300
C693        C  0.72397991  0.15318699  0.64789242     0.77400
O694        O  0.67780973  0.10649766  0.55578681    -0.58700
O695        O  0.73363749  0.16253058  0.57305311    -0.57200
O696        O  0.66530816  0.15494309  0.60130249    -0.57200
O697        O  0.73166475  0.14566899  0.62715539    -0.56300
O698        O  0.50960998  0.84605430  0.90814864    -0.57500
C699        C  0.55591138  0.82775198  0.95338260     0.75100
O700        O  0.58669131  0.86229103  0.87523168    -0.58700
C701        C  0.51099149  0.86726849  0.90088274     0.75100
C702        C  0.58728384  0.91189105  0.94510803     0.77500
Cd703      Cd  0.55726117  0.86440600  0.91270993     1.37500
O704        O  0.53572279  0.82918167  0.94813540    -0.57500
O705        O  0.57023188  0.89027193  0.95549357    -0.56300
C706        C  0.56781807  0.84740209  0.85930333     0.77400
O707        O  0.59133574  0.91200957  0.91897228    -0.58700
O708        O  0.57593962  0.84201804  0.93861615    -0.57200
O709        O  0.53375746  0.88722871  0.89945479    -0.57200
O710        O  0.54539276  0.84205840  0.86743193    -0.56300
O711        O  0.44906825  0.15986800  0.70345112    -0.57500
C712        C  0.47822404  0.13147117  0.65936811     0.75100
O713        O  0.39586945  0.07778342  0.66719906    -0.58700
C714        C  0.42952101  0.16263700  0.70760138     0.75100
C715        C  0.41542167  0.14406405  0.61387885     0.77500
Cd716      Cd  0.42757880  0.12683271  0.66621571     1.37500
O717        O  0.47615583  0.15130919  0.66411654    -0.57500
O718        O  0.40079766  0.13833347  0.63509968    -0.56300
C719        C  0.39414564  0.07668944  0.69368623     0.77400
O720        O  0.43382258  0.13929679  0.61593550    -0.58700
O721        O  0.45698545  0.10972262  0.65808769    -0.57200
O722        O  0.40998302  0.14984582  0.69178244    -0.57200
O723        O  0.40691847  0.09820224  0.70621871    -0.56300
O724        O  0.28717045  0.83289041  0.81312307    -0.57500
C725        C  0.34554630  0.86968241  0.85840927     0.75100
O726        O  0.30850827  0.91485467  0.84069900    -0.58700
C727        C  0.26303432  0.82521370  0.81094520     0.75100
C728        C  0.26705954  0.85020923  0.89930053     0.77500
Cd729      Cd  0.29660232  0.86764666  0.84716156     1.37500
O730        O  0.32584597  0.84954030  0.84847972    -0.57500
O731        O  0.25822405  0.85669167  0.87860044    -0.56300
C732        C  0.31044130  0.91450723  0.81429698     0.77400
O733        O  0.29013169  0.85454441  0.89669923    -0.58700
O734        O  0.34270234  0.88907997  0.86307193    -0.57200
O735        O  0.25454559  0.83672232  0.82606880    -0.57200
O736        O  0.30514455  0.89288623  0.80393442    -0.56300
O737        O  0.28856546  0.45407988  0.78349166    -0.57500
C738        C  0.34208958  0.47964791  0.73305018     0.75100
O739        O  0.33017919  0.41698616  0.75706620    -0.58700
C740        C  0.27028767  0.43391370  0.79533942     0.75100
C741        C  0.26063030  0.41659953  0.70170689     0.77500
Cd742      Cd  0.29706127  0.42965581  0.74751085     1.37500
O743        O  0.32843677  0.46297935  0.71462261    -0.57500
O744        O  0.25778889  0.42469618  0.72502519    -0.56300
C745        C  0.31448328  0.39482089  0.76742363     0.77400
O746        O  0.28014286  0.41346675  0.69940306    -0.58700
O747        O  0.33473412  0.47334561  0.75818058    -0.57200
O748        O  0.26488279  0.41212747  0.78520235    -0.57200
O749        O  0.29049489  0.38760473  0.76590384    -0.56300
O750        O  0.47118537  0.32595927  0.92162177    -0.57500
C751        C  0.42533068  0.26753615  0.86962004     0.75100
O752        O  0.42920561  0.26378098  0.94309231    -0.58700
C753        C  0.46987871  0.34256423  0.93693248     0.75100
C754        C  0.39420120  0.31554653  0.88983120     0.77500
Cd755      Cd  0.42381919  0.29572708  0.91751907     1.37500
O756        O  0.44608203  0.28643650  0.87968261    -0.57500
O757        O  0.41795414  0.32311007  0.88502493    -0.56300
C758        C  0.41234913  0.25809127  0.96203742     0.77400
O759        O  0.38325433  0.29866126  0.90920645    -0.58700
O760        O  0.40411168  0.26188358  0.88173913    -0.57200
O761        O  0.44711060  0.33732995  0.94391869    -0.57200
O762        O  0.39955723  0.26992059  0.96089079    -0.56300
O763        O  0.66117147  0.53021756  0.47117745    -0.57500
C764        C  0.72187889  0.56153913  0.54940990     0.75100
O765        O  0.70078728  0.57249262  0.95101534    -0.58700
C766        C  0.63729859  0.50736511  0.98821537     0.75100
C767        C  0.67296065  0.59725326  0.52487384     0.77500
Cd768      Cd  0.69240125  0.56410904  0.50347172     1.37500
O769        O  0.70095542  0.54120388  0.54181646    -0.57500
O770        O  0.69617230  0.60254743  0.52908361    -0.56300
C771        C  0.72213537  0.57251447  0.95269863     0.77400
O772        O  0.65973172  0.57854710  0.50831753    -0.58700
O773        O  0.72814679  0.58241713  0.53625058    -0.57200
O774        O  0.63819614  0.52829740  0.99508511    -0.57200
O775        O  0.72666263  0.56555558  0.97592877    -0.56300
O776        O  0.52492877  0.65761838  0.68992028    -0.57500
C777        C  0.55224656  0.72339271  0.60849798     0.75100
O778        O  0.57565933  0.72348572  0.69759319    -0.58700
C779        C  0.50374507  0.64768998  0.67613800     0.75100
C780        C  0.58162377  0.67316674  0.63455752     0.77500
Cd781      Cd  0.55044929  0.69418177  0.65722212     1.37500
O782        O  0.57216444  0.72931483  0.62332606    -0.57500
O783        O  0.55812825  0.66527474  0.62805402    -0.56300
C784        C  0.55992924  0.73177150  0.70138435     0.77400
O785        O  0.59129532  0.69057249  0.65339105    -0.58700
O786        O  0.53077609  0.70407398  0.61668010    -0.57200
O787        O  0.50411935  0.65947511  0.65385925    -0.57200
O788        O  0.54030472  0.72245322  0.68527905    -0.56300
O789        O  0.83042883  0.29881146  0.88454200    -0.57500
C790        C  0.86065126  0.35375860  0.82828519     0.75100
O791        O  0.90473526  0.34425107  0.86759573    -0.58700
C792        C  0.83323401  0.28112114  0.89591715     0.75100
C793        C  0.83708464  0.27214501  0.80271095     0.77500
Cd794      Cd  0.86357436  0.30941130  0.84759164     1.37500
O795        O  0.85509086  0.34542519  0.85320111    -0.57500
O796        O  0.86192621  0.28447698  0.80403501    -0.56300
C797        C  0.91702289  0.33205188  0.86803572     0.77400
O798        O  0.82551602  0.27684329  0.82196224    -0.58700
O799        O  0.86763377  0.34152651  0.81217417    -0.57200
O800        O  0.85030799  0.27702049  0.88523021    -0.57200
O801        O  0.90535706  0.30952128  0.85709069    -0.56300
O802        O  0.16733577  0.45984740  0.96684031    -0.57500
C803        C  0.13185856  0.48393024  0.51541487     0.75100
O804        O  0.09754943  0.43486759  0.98114251    -0.58700
C805        C  0.16399896  0.43888121  0.95622183     0.75100
C806        C  0.15235870  0.42318626  0.54405968     0.77500
Cd807      Cd  0.12817428  0.43597376  0.49871621     1.37500
O808        O  0.13672788  0.48031630  0.49063016    -0.57500
O809        O  0.16378736  0.43313034  0.52119187    -0.56300
C810        C  0.08300500  0.41033461  0.98209570     0.77400
O811        O  0.12888696  0.41801098  0.54595903    -0.58700
O812        O  0.12535032  0.46528215  0.53251890    -0.57200
O813        O  0.14719239  0.41780304  0.96793668    -0.57200
O814        O  0.09198997  0.39809824  0.99549347    -0.56300
O815        O  0.14152855  0.65489933  0.60273078    -0.57500
C816        C  0.16155246  0.71570969  0.64847921     0.75100
O817        O  0.14004698  0.72004403  0.55455278    -0.58700
C818        C  0.13549188  0.64685062  0.57783061     0.75100
C819        C  0.08165552  0.67247449  0.61453017     0.77500
Cd820      Cd  0.13532038  0.69242917  0.59685974     1.37500
O821        O  0.16603081  0.69976400  0.63573961    -0.57500
O822        O  0.09140637  0.65806922  0.61126248    -0.56300
C823        C  0.16477739  0.73066045  0.55344860     0.77400
O824        O  0.09592910  0.69613403  0.60708942    -0.58700
O825        O  0.14561372  0.72105180  0.63701777    -0.57200
O826        O  0.12930367  0.65989501  0.56179920    -0.57200
O827        O  0.17509995  0.72384605  0.57227305    -0.56300
O828        O  0.82807161  0.54141820  0.72079390    -0.57500
C829        C  0.85869162  0.51544267  0.77008710     0.75100
O830        O  0.90842261  0.60602319  0.74580980    -0.58700
C831        C  0.83347071  0.56191195  0.70719383     0.75100
C832        C  0.83886449  0.57802534  0.79776708     0.77500
Cd833      Cd  0.86420581  0.56461300  0.75405676     1.37500
O834        O  0.85347187  0.51966044  0.74566704    -0.57500
O835        O  0.82938920  0.57043041  0.77364898    -0.56300
C836        C  0.91659609  0.59447636  0.73012922     0.77400
O837        O  0.86130339  0.58079630  0.80196133    -0.58700
O838        O  0.86586529  0.53383534  0.78752106    -0.57200
O839        O  0.85290757  0.58313910  0.71552686    -0.57200
O840        O  0.90156126  0.57015562  0.72772625    -0.56300
C841        C  0.94168316  0.60791817  0.71432505    -0.01000
C842        C  0.95574991  0.63505495  0.71016504    -0.09000
C843        C  0.97799061  0.64677340  0.69279997    -0.17900
C844        C  0.98686286  0.63158005  0.67905956     0.04500
C845        C  0.97251581  0.60412229  0.68365636     0.18700
C846        C  0.95043264  0.59275145  0.70107246    -0.19300
C847        C  0.98010085  0.58794323  0.67072710    -0.20600
C848        C  0.00197424  0.59841364  0.65356636    -0.19100
C849        C  0.01687227  0.62535650  0.64887778     0.20100
C850        C  0.00946755  0.64241280  0.66119858     0.02200
C851        C  0.02529761  0.66946960  0.65536690    -0.13800
C852        C  0.04802001  0.67913797  0.63901656    -0.11500
C853        C  0.05566500  0.66222677  0.62792936     0.01800
C854        C  0.03960606  0.63531509  0.63249150    -0.23700
H855        H  0.94922017  0.64719302  0.71984622     0.09800
H856        H  0.98774043  0.66769883  0.69037291     0.13300
H857        H  0.93973327  0.57172575  0.70402692     0.12100
H858        H  0.96910770  0.56698097  0.67406670     0.13200
H859        H  0.00745962  0.58532925  0.64414001     0.12300
H860        H  0.02090164  0.68365209  0.66363103     0.09400
H861        H  0.06016554  0.70004382  0.63591733     0.12600
H862        H  0.04526904  0.62202492  0.62396272     0.14500
C863        C  0.13355528  0.50856359  0.52387015    -0.01000
C864        C  0.13714366  0.52729434  0.50376484    -0.09000
C865        C  0.13806507  0.55033749  0.51152011    -0.17900
C866        C  0.13552065  0.55542213  0.53984876     0.04500
C867        C  0.13284475  0.53672986  0.56024378     0.18700
C868        C  0.13157800  0.51347828  0.55209147    -0.19300
C869        C  0.13147947  0.54134649  0.58867208    -0.20600
C870        C  0.13269194  0.56420540  0.59736083    -0.19100
C871        C  0.13458199  0.58265871  0.57777920     0.20100
C872        C  0.13563288  0.57837681  0.54869862     0.02200
C873        C  0.13621894  0.59701182  0.52975246    -0.13800
C874        C  0.13601960  0.61903771  0.53932533    -0.11500
C875        C  0.13562319  0.62344352  0.56797678     0.01800
C876        C  0.13504381  0.60524411  0.58711513    -0.23700
H877        H  0.15577193  0.53013631  0.99303433     0.09800
H878        H  0.15722937  0.56979126  0.00551473     0.13300
H879        H  0.12917838  0.49921907  0.56782057     0.12100
H880        H  0.12961094  0.52724111  0.60431884     0.13200
H881        H  0.13175370  0.56729289  0.61954269     0.12300
H882        H  0.13634544  0.59491878  0.50740605     0.09400
H883        H  0.13635681  0.63281073  0.52416980     0.12600
H884        H  0.13438402  0.60838284  0.60934457     0.14500
C885        C  0.85916603  0.37663257  0.81864223    -0.01000
C886        C  0.86127622  0.38301909  0.79018560    -0.09000
C887        C  0.86013820  0.40477183  0.78102988    -0.17900
C888        C  0.85708952  0.42107801  0.80024013     0.04500
C889        C  0.85502999  0.41448683  0.82911694     0.18700
C890        C  0.85585207  0.39236810  0.83795702    -0.19300
C891        C  0.85247440  0.43016608  0.84910015    -0.20600
C892        C  0.85241053  0.45262216  0.84111577    -0.19100
C893        C  0.85457165  0.45977761  0.81292367     0.20100
C894        C  0.85645636  0.44388976  0.79197222     0.02200
C895        C  0.85777934  0.45166961  0.76373264    -0.13800
C896        C  0.85790154  0.47456268  0.75675439    -0.11500
C897        C  0.85697714  0.49053833  0.77759337     0.01800
C898        C  0.85509898  0.48292990  0.80560538    -0.23700
H899        H  0.86379318  0.37110988  0.77485870     0.09800
H900        H  0.86204004  0.40845651  0.75884057     0.13300
H901        H  0.85432161  0.38763672  0.86005606     0.12100
H902        H  0.85085750  0.42520970  0.87112936     0.13200
H903        H  0.85076439  0.46454653  0.85713954     0.12300
H904        H  0.85876753  0.44054478  0.74655590     0.09400
H905        H  0.85929644  0.48007561  0.73492370     0.07800
H906        H  0.85405304  0.49508963  0.82178923     0.14500
C907        C  0.05753771  0.39717706  0.96714747    -0.01000
C908        C  0.04564888  0.37088361  0.95937069    -0.09000
C909        C  0.02329984  0.35948786  0.94234477    -0.17900
C910        C  0.01194885  0.37408900  0.93269218     0.04500
C911        C  0.02371404  0.40055458  0.94139688     0.18700
C912        C  0.04622568  0.41175499  0.95827123    -0.19300
C913        C  0.01312756  0.41585306  0.93300802    -0.20600
C914        C  0.99092503  0.40542584  0.91627804    -0.19100
C915        C  0.97883293  0.37947985  0.90727372     0.20100
C916        C  0.98930543  0.36346901  0.91497327     0.02200
C917        C  0.97651305  0.33756092  0.90467686    -0.13800
C918        C  0.95374823  0.32773671  0.88844060    -0.11500
C919        C  0.94295815  0.34331493  0.88192129     0.01800
C920        C  0.95596879  0.36934140  0.89101842    -0.23700
H921        H  0.05412472  0.35927045  0.96576068     0.09800
H922        H  0.01542802  0.33925624  0.93698214     0.13300
H923        H  0.05521567  0.43211701  0.96423198     0.12100
H924        H  0.02201605  0.43603607  0.93956815     0.13200
H925        H  0.98309451  0.41775271  0.91040507     0.12300
H926        H  0.98345680  0.32432071  0.90908806     0.09400
H927        H  0.94410534  0.30757846  0.88168936     0.12600
H928        H  0.94792136  0.38166806  0.88597663     0.14500
C929        C  0.73864719  0.56132355  0.57205578    -0.01000
C930        C  0.76255018  0.58406285  0.57749806    -0.09000
C931        C  0.77897447  0.58458316  0.59852223    -0.17900
C932        C  0.77192990  0.56225165  0.61512179     0.04500
C933        C  0.74804983  0.53890121  0.60898554     0.18700
C934        C  0.73155042  0.53868478  0.58771718    -0.19300
C935        C  0.74088925  0.51596856  0.62405516    -0.20600
C936        C  0.75687630  0.51580574  0.64529330    -0.19100
C937        C  0.78004757  0.53873782  0.65242798     0.20100
C938        C  0.78777068  0.56233835  0.63755435     0.02200
C939        C  0.81072166  0.58523181  0.64619462    -0.13800
C940        C  0.82542087  0.58471763  0.66852669    -0.11500
C941        C  0.81791464  0.56147875  0.68301496     0.01800
C942        C  0.79531782  0.53842910  0.67475091    -0.23700
H943        H  0.76876251  0.60167141  0.56530991     0.09800
H944        H  0.79715805  0.60274686  0.60096201     0.13300
H945        H  0.71323687  0.52088947  0.58332313     0.12100
H946        H  0.72283539  0.49802792  0.61934165     0.13200
H947        H  0.75083694  0.49774220  0.65654913     0.12300
H948        H  0.81762718  0.60405110  0.63661905     0.09400
H949        H  0.84271154  0.60280941  0.67463052     0.12600
H950        H  0.78930290  0.52037756  0.68604551     0.14500
C951        C  0.82371535  0.58239799  0.81968678    -0.01000
C952        C  0.80005973  0.58103546  0.81268092    -0.09000
C953        C  0.78403630  0.58239067  0.83320460    -0.17900
C954        C  0.79100110  0.58494162  0.86177354     0.04500
C955        C  0.81553483  0.58742637  0.86871908     0.18700
C956        C  0.83158880  0.58619297  0.84776752    -0.19300
C957        C  0.82360841  0.59045206  0.89664420    -0.20600
C958        C  0.80748595  0.59009534  0.91793602    -0.19100
C959        C  0.78275441  0.58650234  0.91191351     0.20100
C960        C  0.77426038  0.58435207  0.88374470     0.02200
C961        C  0.74903532  0.58080111  0.87899182    -0.13800
C962        C  0.73257332  0.57825017  0.90130803    -0.11500
C963        C  0.74065333  0.57916267  0.92900031     0.01800
C964        C  0.76608055  0.58404513  0.93405613    -0.23700
H965        H  0.79356235  0.57838639  0.79113782     0.09800
H966        H  0.76609999  0.58092357  0.82606968     0.13300
H967        H  0.84984441  0.58734481  0.85347505     0.12100
H968        H  0.84234733  0.59261533  0.90212750     0.13200
H969        H  0.81415426  0.59197288  0.93937191     0.12300
H970        H  0.74117643  0.57919598  0.85829502     0.09400
H971        H  0.71304950  0.57450007  0.89684900     0.12600
H972        H  0.77264563  0.58503075  0.95543177     0.14500
C973        C  0.59650310  0.66266870  0.61995528    -0.01000
C974        C  0.62284201  0.67136301  0.62590734    -0.09000
C975        C  0.63661605  0.66193816  0.61071989    -0.17900
C976        C  0.62437976  0.64343816  0.58896705     0.04500
C977        C  0.59756864  0.63446848  0.58347513     0.18700
C978        C  0.58412766  0.64413244  0.59872692    -0.19300
C979        C  0.58413081  0.61581153  0.56273984    -0.20600
C980        C  0.59663370  0.60559912  0.54732954    -0.19100
C981        C  0.62306014  0.61408233  0.55188009     0.20100
C982        C  0.63749305  0.63332145  0.57253223     0.02200
C983        C  0.66431746  0.64148063  0.57566034    -0.13800
C984        C  0.67599500  0.63048734  0.55950489    -0.11500
C985        C  0.66144227  0.61105030  0.53968848     0.01800
C986        C  0.63500718  0.60317642  0.53591494    -0.23700
H987        H  0.63290448  0.68564789  0.64219076     0.09800
H988        H  0.65677593  0.66942917  0.61646232     0.13300
H989        H  0.56377284  0.63717862  0.59382502     0.12100
H990        H  0.56367259  0.60889902  0.55851379     0.13200
H991        H  0.58553481  0.59098916  0.53162367     0.12300
H992        H  0.67671089  0.65622139  0.59051721     0.09400
H993        H  0.69643736  0.63689285  0.56297164     0.12600
H994        H  0.62346745  0.58809120  0.52079174     0.14500
C995        C  0.49375006  0.36682297  0.94582355    -0.01000
C996        C  0.49228159  0.38815665  0.95579592    -0.09000
C997        C  0.51496606  0.41140536  0.96324466    -0.17900
C998        C  0.53998826  0.41395670  0.96120048     0.04500
C999        C  0.54123013  0.39203688  0.95146302     0.18700
C1000       C  0.51831745  0.36894586  0.94374054    -0.19300
C1001       C  0.56535201  0.39325435  0.94939124    -0.20600
C1002       C  0.58841900  0.41587204  0.95659649    -0.19100
C1003       C  0.58800146  0.43793384  0.96592012     0.20100
C1004       C  0.56380399  0.43735941  0.96838738     0.02200
C1005       C  0.56461004  0.46029520  0.97777941    -0.13800
C1006       C  0.58838491  0.48277055  0.98426561    -0.11500
C1007       C  0.61216346  0.48323690  0.98173225     0.01800
C1008       C  0.61175370  0.46064884  0.97264203    -0.23700
H1009       H  0.47351668  0.38701786  0.95746470     0.09800
H1010       H  0.51225270  0.42699426  0.97052544     0.13300
H1011       H  0.51962865  0.35247660  0.93616748     0.12100
H1012       H  0.56640125  0.37657124  0.94209528     0.13200
H1013       H  0.60676618  0.41615269  0.95470422     0.12300
H1014       H  0.54723575  0.46156390  0.98018258     0.09400
H1015       H  0.58811699  0.49994161  0.99125461     0.12600
H1016       H  0.63002045  0.46078054  0.97056054     0.14500
C1017       C  0.17930665  0.43898757  0.93184600    -0.01000
C1018       C  0.19904771  0.46261977  0.92054191    -0.09000
C1019       C  0.21448684  0.46288265  0.89842205    -0.17900
C1020       C  0.21064471  0.43933162  0.88682129     0.04500
C1021       C  0.19039616  0.41538891  0.89825762     0.18700
C1022       C  0.17494844  0.41543806  0.92042281    -0.19300
C1023       C  0.18583089  0.39150667  0.88772035    -0.20600
C1024       C  0.20101579  0.39083085  0.86603788    -0.19100
C1025       C  0.22101811  0.41402285  0.85423301     0.20100
C1026       C  0.22614918  0.43863822  0.86438871     0.02200
C1027       C  0.24651250  0.46144106  0.85154297    -0.13800
C1028       C  0.26094679  0.45982382  0.82944182    -0.11500
C1029       C  0.25566479  0.43554177  0.81943759     0.01800
C1030       C  0.23578337  0.41271126  0.83208742    -0.23700
H1031       H  0.20283237  0.48107838  0.92905984     0.09800
H1032       H  0.22938488  0.48185342  0.89107210     0.13300
H1033       H  0.15969221  0.39702965  0.92904589     0.12100
H1034       H  0.17045109  0.37320132  0.89637868     0.13200
H1035       H  0.19701182  0.37201534  0.85836798     0.12300
H1036       H  0.25167780  0.48084222  0.85789896     0.09400
H1037       H  0.27618765  0.47772816  0.81997039     0.12600
H1038       H  0.23155297  0.39379151  0.82448419     0.14500
C1039       C  0.24251804  0.41221390  0.67839530    -0.01000
C1040       C  0.21683672  0.40607238  0.68399184    -0.09000
C1041       C  0.20044413  0.40519625  0.66249658    -0.17900
C1042       C  0.20955726  0.41122198  0.63461178     0.04500
C1043       C  0.23555293  0.41699774  0.62903419     0.18700
C1044       C  0.25150882  0.41689081  0.65075820    -0.19300
C1045       C  0.24586684  0.42388364  0.60200557    -0.20600
C1046       C  0.23121942  0.42588507  0.58047941    -0.19100
C1047       C  0.20570856  0.42060123  0.58530602     0.20100
C1048       C  0.19423427  0.41265776  0.61227196     0.02200
C1049       C  0.16813416  0.40700496  0.61570230    -0.13800
C1050       C  0.15440484  0.40993234  0.59350608    -0.11500
C1051       C  0.16614365  0.41851445  0.56722427     0.01800
C1052       C  0.19173612  0.42356196  0.56328462    -0.23700
H1053       H  0.20951535  0.40236771  0.70526100     0.09800
H1054       H  0.18107444  0.40062191  0.66854629     0.13300
H1055       H  0.27149762  0.42198444  0.64638376     0.12100
H1056       H  0.26564861  0.42835503  0.59761015     0.13200
H1057       H  0.24000167  0.43180841  0.55991281     0.12300
H1058       H  0.15781313  0.40038673  0.63528889     0.09400
H1059       H  0.13462300  0.40579705  0.59706367     0.12600
H1060       H  0.20099826  0.43009711  0.54299144     0.14500
C1061       C  0.47991001  0.62349649  0.68541545    -0.01000
C1062       C  0.47802549  0.61420170  0.71276058    -0.09000
C1063       C  0.45573880  0.59125354  0.72165587    -0.17900
C1064       C  0.43460469  0.57653566  0.70322372     0.04500
C1065       C  0.43693000  0.58568334  0.67524530     0.18700
C1066       C  0.45918398  0.60918583  0.66679613    -0.19300
C1067       C  0.41722661  0.57110764  0.65574738    -0.20600
C1068       C  0.39536045  0.54743002  0.66333717    -0.19100
C1069       C  0.39221633  0.53814596  0.69084857     0.20100
C1070       C  0.41149272  0.55285702  0.71136980     0.02200
C1071       C  0.40663602  0.54332990  0.73918688    -0.13800
C1072       C  0.38395650  0.51988838  0.74612763    -0.11500
C1073       C  0.36553663  0.50496768  0.72563291     0.01800
C1074       C  0.36978650  0.51426633  0.69801046    -0.23700
H1075       H  0.49386530  0.62479268  0.72745580     0.09800
H1076       H  0.45588748  0.58527085  0.74292097     0.13300
H1077       H  0.46063733  0.61602312  0.64544536     0.12100
H1078       H  0.41892988  0.57786985  0.63434346     0.13200
H1079       H  0.38066561  0.53642204  0.64762740     0.12300
H1080       H  0.41980870  0.55371263  0.75613737     0.09400
H1081       H  0.38101466  0.51322418  0.76765066     0.12600
H1082       H  0.35543685  0.50303074  0.68207290     0.14500
C1083       C  0.32383970  0.37919470  0.78224385    -0.01000
C1084       C  0.30741567  0.35940671  0.80101871    -0.09000
C1085       C  0.31730484  0.34755070  0.81859560    -0.17900
C1086       C  0.34410183  0.35516577  0.81787183     0.04500
C1087       C  0.36029721  0.37434316  0.79772758     0.18700
C1088       C  0.35010908  0.38607909  0.78028549    -0.19300
C1089       C  0.38682159  0.38232945  0.79557837    -0.20600
C1090       C  0.39788201  0.37217055  0.81343123    -0.19100
C1091       C  0.38272744  0.35383321  0.83395434     0.20100
C1092       C  0.35559072  0.34485176  0.83653367     0.02200
C1093       C  0.34144475  0.32628076  0.85788036    -0.13800
C1094       C  0.35382316  0.31696023  0.87563818    -0.11500
C1095       C  0.38058325  0.32590670  0.87269920     0.01800
C1096       C  0.39478615  0.34445914  0.85188398    -0.23700
H1097       H  0.28702143  0.35379801  0.80298248     0.09800
H1098       H  0.30364391  0.33287752  0.83288115     0.13300
H1099       H  0.36293360  0.40129032  0.76573683     0.12100
H1100       H  0.39920308  0.39678961  0.78016969     0.13200
H1101       H  0.41856221  0.37892354  0.81133728     0.12300
H1102       H  0.32083895  0.31859519  0.86131474     0.09400
H1103       H  0.34238374  0.30255773  0.89149143     0.12600
H1104       H  0.41551139  0.35158565  0.84932837     0.14500
C1105       C  0.25104294  0.83659813  0.92443358    -0.01000
C1106       C  0.22466284  0.82960585  0.92651989    -0.09000
C1107       C  0.20881439  0.81342351  0.94837654    -0.17900
C1108       C  0.21886083  0.80342570  0.96874103     0.04500
C1109       C  0.24584763  0.81135877  0.96689672     0.18700
C1110       C  0.26151635  0.82783535  0.94517541    -0.19300
C1111       C  0.25704582  0.80224129  0.98629040    -0.20600
C1112       C  0.25092663  0.78495664  0.50986030    -0.19100
C1113       C  0.22424024  0.77673061  0.51001254     0.20100
C1114       C  0.20323735  0.78553015  0.99052542     0.02200
C1115       C  0.17605139  0.77579524  0.99387972    -0.13800
C1116       C  0.16160789  0.75773798  0.01514693    -0.11500
C1117       C  0.18117457  0.74979976  0.53148719     0.01800
C1118       C  0.20819344  0.75932486  0.53092292    -0.23700
H1119       H  0.21602123  0.83604024  0.91075276     0.09800
H1120       H  0.18866738  0.80860993  0.94847913     0.13300
H1121       H  0.28185089  0.83301174  0.94383718     0.12100
H1122       H  0.27759020  0.80821406  0.98495663     0.13200
H1123       H  0.25920833  0.77836586  0.52590385     0.12300
H1124       H  0.16541792  0.78163599  0.98025401     0.09400
H1125       H  0.14085337  0.75063310  0.01697379     0.12600
H1126       H  0.21684059  0.75282539  0.54665721     0.14500
C1127       C  0.24579102  0.80466397  0.79105899    -0.01000
C1128       C  0.21981777  0.79849019  0.78770698    -0.09000
C1129       C  0.20415342  0.78148104  0.76675448    -0.17900
C1130       C  0.21410188  0.77015251  0.74821588     0.04500
C1131       C  0.23994672  0.77517822  0.75283830     0.18700
C1132       C  0.25549636  0.79231659  0.77410533    -0.19300
C1133       C  0.25040841  0.76375558  0.73562701    -0.20600
C1134       C  0.23614113  0.74826930  0.71314484    -0.19100
C1135       C  0.21123411  0.74416595  0.70708997     0.20100
C1136       C  0.19970255  0.75478336  0.72474714     0.02200
C1137       C  0.17475204  0.75056587  0.71739151    -0.13800
C1138       C  0.16241953  0.73751479  0.69289261    -0.11500
C1139       C  0.17413916  0.72769141  0.67525343     0.01800
C1140       C  0.19818180  0.73035365  0.68285735    -0.23700
H1141       H  0.21171562  0.80744332  0.80084766     0.09800
H1142       H  0.18450536  0.77799424  0.76537141     0.13300
H1143       H  0.27548556  0.79670734  0.77683227     0.12100
H1144       H  0.26997770  0.76724985  0.73924111     0.13200
H1145       H  0.24498754  0.74011870  0.69988609     0.12300
H1146       H  0.16455271  0.75779504  0.72959913     0.09400
H1147       H  0.14363620  0.73530923  0.68757126     0.12600
H1148       H  0.20731106  0.72273980  0.66922682     0.14500
C1149       C  0.42897226  0.17923426  0.73015469    -0.01000
C1150       C  0.40530933  0.17767946  0.73714509    -0.09000
C1151       C  0.40391300  0.19201727  0.75933167    -0.17900
C1152       C  0.42635602  0.20866776  0.77527134     0.04500
C1153       C  0.45059806  0.21110814  0.76732606     0.18700
C1154       C  0.45161410  0.19608292  0.74526966    -0.19300
C1155       C  0.47365466  0.22861871  0.78135750    -0.20600
C1156       C  0.47315415  0.24382361  0.80311172    -0.19100
C1157       C  0.44944719  0.24115778  0.81206606     0.20100
C1158       C  0.42562839  0.22314390  0.79861920     0.02200
C1159       C  0.40203397  0.21997037  0.80951183    -0.13800
C1160       C  0.40215455  0.23442205  0.83242743    -0.11500
C1161       C  0.42569431  0.25266580  0.84513593     0.01800
C1162       C  0.44932571  0.25604879  0.83475511    -0.23700
H1163       H  0.38757787  0.16497706  0.72563520     0.09800
H1164       H  0.38503763  0.18988474  0.76321441     0.13300
H1165       H  0.47008005  0.19763098  0.73976603     0.12100
H1166       H  0.49224781  0.23076800  0.77527703     0.13200
H1167       H  0.49137956  0.25741156  0.81334995     0.12300
H1168       H  0.38309192  0.20604781  0.80122684     0.09400
H1169       H  0.38362212  0.23124724  0.84024368     0.12600
H1170       H  0.46762172  0.26987133  0.84473665     0.14500
C1171       C  0.40867665  0.23878208  0.98404027    -0.01000
C1172       C  0.40323811  0.23787575  0.50104545    -0.09000
C1173       C  0.39998923  0.22023763  0.52246132    -0.17900
C1174       C  0.41518370  0.20798259  0.52320175     0.04500
C1175       C  0.43378840  0.21420105  0.50146492     0.18700
C1176       C  0.42489066  0.22798443  0.98380771    -0.19300
C1177       C  0.44962850  0.20303483  0.50118600    -0.20600
C1178       C  0.44782187  0.18614402  0.52237615    -0.19100
C1179       C  0.42996986  0.17978621  0.54429728     0.20100
C1180       C  0.41303793  0.19019988  0.54486999     0.02200
C1181       C  0.39503746  0.18259206  0.56731508    -0.13800
C1182       C  0.39486869  0.16646125  0.58890221    -0.11500
C1183       C  0.41249002  0.15731112  0.58886286     0.01800
C1184       C  0.42951693  0.16356657  0.56605924    -0.23700
H1185       H  0.39143448  0.24702536  0.50133149     0.09800
H1186       H  0.38566183  0.21680101  0.53825160     0.13300
H1187       H  0.43954319  0.23362246  0.96754359     0.12100
H1188       H  0.45395226  0.20602205  0.98644719     0.13200
H1189       H  0.46069001  0.17818577  0.52174452     0.12300
H1190       H  0.38119275  0.18914481  0.56902387     0.09400
H1191       H  0.38145975  0.16190755  0.60622581     0.12600
H1192       H  0.44318372  0.15655176  0.56569876     0.14500
C1193       C  0.37885153  0.05199739  0.70983163    -0.01000
C1194       C  0.36789983  0.02749649  0.69705457    -0.09000
C1195       C  0.35516624  0.00447725  0.71305846    -0.17900
C1196       C  0.35304819  0.00527165  0.74254617     0.04500
C1197       C  0.36421376  0.03021241  0.75529583     0.18700
C1198       C  0.37659497  0.05306638  0.73896040    -0.19300
C1199       C  0.36350243  0.03230782  0.78439448    -0.20600
C1200       C  0.35231069  0.01012814  0.80129632    -0.19100
C1201       C  0.34105254  0.98520461  0.78953300     0.20100
C1202       C  0.34082026  0.98237855  0.75994230     0.02200
C1203       C  0.32848737  0.95675452  0.74914008    -0.13800
C1204       C  0.31797508  0.93502369  0.76692006    -0.11500
C1205       C  0.31920214  0.93787513  0.79609143     0.01800
C1206       C  0.33034295  0.96308625  0.80724265    -0.23700
H1207       H  0.36960617  0.02610610  0.67466884     0.09800
H1208       H  0.34765412  0.98638767  0.70181304     0.13300
H1209       H  0.38506100  0.07189537  0.74917529     0.12100
H1210       H  0.37206406  0.05130824  0.79422134     0.13200
H1211       H  0.35251231  0.01250267  0.82376551     0.12300
H1212       H  0.32677766  0.95284950  0.72702330     0.09400
H1213       H  0.30917614  0.91578024  0.75766579     0.12600
H1214       H  0.33131676  0.96556443  0.82974145     0.14500
C1215       C  0.57087413  0.83558812  0.83320443    -0.01000
C1216       C  0.59247683  0.83240706  0.82894064    -0.09000
C1217       C  0.59291283  0.81735187  0.80656789    -0.17900
C1218       C  0.57165508  0.80502683  0.78760638     0.04500
C1219       C  0.55064923  0.80982010  0.79107796     0.18700
C1220       C  0.55042559  0.82479474  0.81363634    -0.19300
C1221       C  0.52948017  0.79896969  0.77252727    -0.20600
C1222       C  0.52818905  0.78268782  0.75107488    -0.19100
C1223       C  0.54786476  0.77651883  0.74777732     0.20100
C1224       C  0.57004184  0.78770517  0.76576985     0.02200
C1225       C  0.58908445  0.78037011  0.76153012    -0.13800
C1226       C  0.58592123  0.76238006  0.74070481    -0.11500
C1227       C  0.56384523  0.75123611  0.72327300     0.01800
C1228       C  0.54510637  0.75875143  0.72683689    -0.23700
H1229       H  0.60859167  0.84062123  0.84364386     0.09800
H1230       H  0.60988877  0.81527222  0.80493095     0.13300
H1231       H  0.53374752  0.82738927  0.81646081     0.12100
H1232       H  0.51355146  0.80278054  0.77488959     0.13200
H1233       H  0.51132894  0.77436862  0.73732433     0.12300
H1234       H  0.60640904  0.78789766  0.77430050     0.09400
H1235       H  0.60077917  0.75706713  0.73835377     0.12600
H1236       H  0.52795342  0.75039725  0.71349251     0.14500
C1237       C  0.55656094  0.81116211  0.97618812    -0.01000
C1238       C  0.57984173  0.81148879  0.98217704    -0.09000
C1239       C  0.58593977  0.79892423  0.49601278    -0.17900
C1240       C  0.56198201  0.78308863  0.51007217     0.04500
C1241       C  0.53932311  0.78281235  0.49991354     0.18700
C1242       C  0.54154168  0.80008741  0.47845914    -0.19300
C1243       C  0.51477431  0.76569699  0.51165679    -0.20600
C1244       C  0.51240558  0.74935427  0.53383072    -0.19100
C1245       C  0.53467114  0.75064364  0.54560106     0.20100
C1246       C  0.55982475  0.76782262  0.53405949     0.02200
C1247       C  0.58193055  0.77002196  0.54783551    -0.13800
C1248       C  0.57917303  0.75562911  0.57191203    -0.11500
C1249       C  0.55437979  0.73825435  0.58287825     0.01800
C1250       C  0.53211170  0.73555276  0.56942848    -0.23700
H1251       H  0.59713949  0.82291059  0.96945833     0.09800
H1252       H  0.60001853  0.79877830  0.00792966     0.13300
H1253       H  0.52437347  0.80063206  0.47167739     0.12100
H1254       H  0.49731747  0.76502442  0.50372007     0.13200
H1255       H  0.49315090  0.73633290  0.54248985     0.12300
H1256       H  0.60170082  0.78339190  0.54111923     0.09400
H1257       H  0.59667276  0.75815993  0.58201447     0.12600
H1258       H  0.51285989  0.72235136  0.57801741     0.14500
C1259       C  0.48729138  0.86863071  0.89430074    -0.01000
C1260       C  0.48835974  0.89272101  0.89347257    -0.09000
C1261       C  0.46596300  0.89407979  0.88761005    -0.17900
C1262       C  0.44167345  0.87124159  0.88197719     0.04500
C1263       C  0.44093608  0.84693592  0.88205094     0.18700
C1264       C  0.46348589  0.84582786  0.88850803    -0.19300
C1265       C  0.41770950  0.82383390  0.87558530    -0.20600
C1266       C  0.39508673  0.82426296  0.86909193    -0.19100
C1267       C  0.39495096  0.84773618  0.86942268     0.20100
C1268       C  0.41814763  0.87157389  0.87613033     0.02200
C1269       C  0.41661312  0.89456564  0.87701283    -0.13800
C1270       C  0.39311178  0.89386445  0.87134713    -0.11500
C1271       C  0.37044338  0.87037741  0.86434172     0.01800
C1272       C  0.37159278  0.84740943  0.86332713    -0.23700
H1273       H  0.50657718  0.91064169  0.89768106     0.09800
H1274       H  0.46835304  0.91330521  0.88739287     0.13300
H1275       H  0.46256199  0.82712892  0.88867958     0.12100
H1276       H  0.41705520  0.80527445  0.87542622     0.13200
H1277       H  0.37746609  0.80602407  0.86405854     0.12300
H1278       H  0.43313848  0.91333882  0.88236879     0.09400
H1279       H  0.39272848  0.91186853  0.87237545     0.12600
H1280       H  0.35411370  0.82907551  0.85816320     0.14500
C1281       C  0.81711844  0.26559278  0.91994857    -0.01000
C1282       C  0.79957551  0.27147862  0.93288904    -0.09000
C1283       C  0.78331885  0.25579908  0.95458146    -0.17900
C1284       C  0.78394741  0.23346650  0.96382370     0.04500
C1285       C  0.80224209  0.22801457  0.95092435     0.18700
C1286       C  0.81859600  0.24407066  0.92942341    -0.19300
C1287       C  0.80387453  0.20629513  0.95918438    -0.20600
C1288       C  0.78747253  0.18954783  0.97981646    -0.19100
C1289       C  0.76904730  0.19411789  0.99270302     0.20100
C1290       C  0.76698173  0.21615669  0.98506384     0.02200
C1291       C  0.74783101  0.21960308  0.99883133    -0.13800
C1292       C  0.73148812  0.20187157  0.01922919    -0.11500
C1293       C  0.74051421  0.19032466  0.53369382     0.01800
C1294       C  0.76651662  0.19664884  0.52987985    -0.23700
H1295       H  0.79822875  0.28815181  0.92604066     0.09800
H1296       H  0.77027934  0.26150451  0.96346124     0.13300
H1297       H  0.83216058  0.23938799  0.91957586     0.12100
H1298       H  0.81781689  0.20210070  0.94944265     0.13200
H1299       H  0.81584141  0.21079863  0.51865342     0.12300
H1300       H  0.74495211  0.23575391  0.99426780     0.09400
H1301       H  0.71708869  0.20513576  0.02936671     0.12600
H1302       H  0.77550500  0.18990378  0.54493690     0.14500
C1303       C  0.74106637  0.16712884  0.67215809    -0.01000
C1304       C  0.76787268  0.17558816  0.67193662    -0.09000
C1305       C  0.78453591  0.19191704  0.69308451    -0.17900
C1306       C  0.77485955  0.20045814  0.71517923     0.04500
C1307       C  0.74750752  0.19116475  0.71559056     0.18700
C1308       C  0.73105371  0.17464963  0.69442984    -0.19300
C1309       C  0.73668287  0.19888543  0.73676337    -0.20600
C1310       C  0.75240813  0.21585873  0.75752444    -0.19100
C1311       C  0.77939342  0.22556031  0.75771874     0.20100
C1312       C  0.79116068  0.21807100  0.73666668     0.02200
C1313       C  0.81865461  0.22880525  0.73805849    -0.13800
C1314       C  0.83367265  0.24625801  0.75939021    -0.11500
C1315       C  0.82179977  0.25345622  0.78003450     0.01800
C1316       C  0.79462064  0.24288412  0.77894090    -0.23700
H1317       H  0.77617372  0.17022713  0.65488084     0.09800
H1318       H  0.80496037  0.19793194  0.69132516     0.13300
H1319       H  0.71037862  0.16831485  0.69485917     0.12100
H1320       H  0.71587296  0.19190165  0.73715281     0.13200
H1321       H  0.74337349  0.22154847  0.77352238     0.12300
H1322       H  0.82907987  0.22414870  0.72289816     0.09400
H1323       H  0.85462866  0.25413456  0.75971508     0.12600
H1324       H  0.78513402  0.24833232  0.79466620     0.14500
C1325       C  0.50393196  0.13343901  0.65511299    -0.01000
C1326       C  0.52697571  0.15777708  0.65240122    -0.09000
C1327       C  0.55094009  0.15943339  0.64670234    -0.17900
C1328       C  0.55258731  0.13662606  0.64353088     0.04500
C1329       C  0.52924644  0.11205814  0.64727299     0.18700
C1330       C  0.50537936  0.11071623  0.65293316    -0.19300
C1331       C  0.52967753  0.08883674  0.64490262    -0.20600
C1332       C  0.55272330  0.08935562  0.63837416    -0.19100
C1333       C  0.57591945  0.11310404  0.63386771     0.20100
C1334       C  0.57631764  0.13715237  0.63643360     0.02200
C1335       C  0.60032144  0.16051709  0.63122616    -0.13800
C1336       C  0.62273370  0.15989338  0.62340105    -0.11500
C1337       C  0.62210601  0.13609191  0.62089468     0.01800
C1338       C  0.59866746  0.11282028  0.62644457    -0.23700
H1339       H  0.52642523  0.17565229  0.65419945     0.09800
H1340       H  0.56776017  0.17880188  0.64467203     0.13300
H1341       H  0.48773352  0.09178287  0.65530227     0.12100
H1342       H  0.51197173  0.07007344  0.64788505     0.13200
H1343       H  0.55231604  0.07098615  0.63648558     0.12300
H1344       H  0.60232265  0.17953614  0.63270203     0.09400
H1345       H  0.64070077  0.17817347  0.61942321     0.12600
H1346       H  0.59797816  0.09430896  0.62448379     0.14500
C1347       C  0.60103667  0.93550178  0.96296214    -0.01000
C1348       C  0.60107623  0.93287361  0.99214208    -0.09000
C1349       C  0.61248470  0.95479879  0.00952936    -0.17900
C1350       C  0.62399424  0.98032787  0.99825965     0.04500
C1351       C  0.62391974  0.98287309  0.96862190     0.18700
C1352       C  0.61280007  0.96063327  0.95136105    -0.19300
C1353       C  0.63458785  0.00760752  0.95631341    -0.20600
C1354       C  0.65735242  0.04441421  0.47367391    -0.19100
C1355       C  0.65894981  0.04212752  0.50267705     0.20100
C1356       C  0.65280423  0.01776808  0.51476796     0.02200
C1357       C  0.65524761  0.01679697  0.54419589    -0.13800
C1358       C  0.66302894  0.03893410  0.56083709    -0.11500
C1359       C  0.66850211  0.06273105  0.54884743     0.01800
C1360       C  0.66651690  0.06411299  0.51966645    -0.23700
H1361       H  0.59209701  0.91365349  0.00168294     0.09800
H1362       H  0.61162675  0.95111554  0.03167766     0.13300
H1363       H  0.61261410  0.96287689  0.92886833     0.12100
H1364       H  0.63456541  0.00972278  0.93379614     0.13200
H1365       H  0.66215935  0.06297489  0.46430175     0.12300
H1366       H  0.65126528  0.99920012  0.55500133     0.09400
H1367       H  0.66451825  0.03733006  0.58324539     0.12600
H1368       H  0.67091623  0.08246213  0.51002550     0.14500
loop_ 
_geom_bond_atom_site_label_1 
_geom_bond_atom_site_label_2 
_geom_bond_distance 
_geom_bond_site_symmetry_2 
_ccdc_geom_bond_type 
O1            C4   1.266       .  A
O1           Cd6   2.443       .  S
C2           O11   1.266       .  A
C2            O7   1.268       .  A
C2          C609   1.476       .  S
O3            C9   1.264       .  A
O3           Cd6   2.494       .  S
C4           O12   1.267       .  A
C4          C653   1.473       .  S
C5           O10   1.262       .  A
C5            O8   1.269       .  A
C5          C675   1.482       .  S
Cd6          O13   2.481       .  S
Cd6          O12   2.452       .  S
Cd6          O11   2.418       .  S
Cd6           O7   2.476       .  S
Cd6          O10   2.429       .  S
Cd6           O8   2.524       .  S
C9           O13   1.263       .  A
C9          C619   1.485       .  S
O14          C17   1.267       .  A
O14         Cd19   2.464       .  S
C15          O24   1.265       .  A
C15          O20   1.267       .  A
C15         C553   1.476       .  S
O16          C22   1.269       .  A
O16         Cd19   2.536       .  S
C17          O25   1.267       .  A
C17         C575   1.477       .  S
C18          O23   1.270       .  A
C18          O21   1.260       .  A
C18         C663   1.489       .  S
Cd19         O26   2.452       .  S
Cd19         O25   2.474       .  S
Cd19         O24   2.434       .  S
Cd19         O20   2.476       .  S
Cd19         O23   2.547       .  S
Cd19         O21   2.453       .  S
C22          O26   1.263       .  A
C22         C531   1.490       .  S
O27          C30   1.268       .  A
O27         Cd32   2.482       .  S
C28          O37   1.267       .  A
C28          O33   1.268       .  A
C28         C641   1.474       .  S
O29          C35   1.271       .  A
O29         Cd32   2.508       .  S
C30          O38   1.264       .  A
C30         C465   1.476       .  S
C31          O36   1.262       .  A
C31          O34   1.266       .  A
C31         C499   1.480       .  S
Cd32         O39   2.408       .  S
Cd32         O38   2.418       .  S
Cd32         O37   2.450       .  S
Cd32         O33   2.444       .  S
Cd32         O36   2.435       .  S
Cd32         O34   2.508       .  S
C35          O39   1.263       .  A
C35         C509   1.480       .  S
O40          C43   1.270       .  A
O40         Cd45   2.473       .  S
C41          O50   1.269       .  A
C41          O46   1.267       .  A
C41         C587   1.481       .  S
O42          C48   1.270       .  A
O42         Cd45   2.513       .  S
C43          O51   1.265       .  A
C43         C443   1.481       .  S
C44          O49   1.264       .  A
C44          O47   1.268       .  A
C44         C421   1.480       .  S
Cd45         O52   2.428       .  S
Cd45         O51   2.448       .  S
Cd45         O50   2.483       .  S
Cd45         O46   2.468       .  S
Cd45         O49   2.454       .  S
Cd45         O47   2.499       .  S
C48          O52   1.261       .  A
C48         C521   1.481       .  S
O53          C56   1.266       .  A
O53         Cd58   2.507       .  S
C54          O63   1.265       .  A
C54          O59   1.265       .  A
C54         C389   1.475       .  S
O55          C61   1.269       .  A
O55         Cd58   2.526       .  S
C56          O64   1.262       .  A
C56         C345   1.475       .  S
C57          O62   1.266       .  A
C57          O60   1.264       .  A
C57         C355   1.488       .  S
Cd58         O65   2.454       .  S
Cd58         O64   2.397       .  S
Cd58         O63   2.462       .  S
Cd58         O59   2.448       .  S
Cd58         O62   2.493       .  S
Cd58         O60   2.486       .  S
C61          O65   1.261       .  A
C61         C399   1.487       .  S
O66          C69   1.266       .  A
O66         Cd71   2.469       .  S
C67          O76   1.267       .  A
C67          O72   1.268       .  A
C67         C477   1.479       .  S
O68          C74   1.264       .  A
O68         Cd71   2.436       .  S
C69          O77   1.266       .  A
C69         C311   1.483       .  S
C70          O75   1.271       .  A
C70          O73   1.263       .  A
C70         C411   1.488       .  S
Cd71         O78   2.517       .  S
Cd71         O77   2.482       .  S
Cd71         O76   2.447       .  S
Cd71         O72   2.474       .  S
Cd71         O75   2.535       .  S
Cd71         O73   2.433       .  S
C74          O78   1.270       .  A
C74         C487   1.486       .  S
O79         C766   1.265       .  A
O79         Cd84   2.498   1_556  S
C80          O89   1.265       .  A
C80          O85   1.271       .  A
C80         C245   1.478       .  S
O81          C87   1.271       .  A
O81        Cd768   2.532       .  S
C82          O90   1.267       .  A
C82         O763   1.266       .  A
C82         C323   1.481       .  S
C83          O88   1.270       .  A
C83          O86   1.263       .  A
C83         C301   1.485       .  S
Cd84         O89   2.405       .  S
Cd84         O85   2.499       .  S
Cd84         O88   2.525       .  S
Cd84         O86   2.440       .  S
Cd84        O765   2.541   1_554  S
Cd84        O775   2.447   1_554  S
Cd84        O774   2.478   1_554  S
C87          O91   1.262       .  A
C87         C279   1.488       .  S
O90        Cd768   2.479       .  S
O91        Cd768   2.453       .  S
O92          C95   1.266       .  A
O92         Cd97   2.483       .  S
C93         O102   1.269       .  A
C93          O98   1.267       .  A
C93         C565   1.474       .  S
O94         C100   1.269       .  A
O94         Cd97   2.542       .  S
C95         O103   1.264       .  A
C95         C377   1.478       .  S
C96         O101   1.270       .  A
C96          O99   1.262       .  A
C96         C289   1.485       .  S
Cd97        O104   2.446       .  S
Cd97        O103   2.453       .  S
Cd97        O102   2.466       .  S
Cd97         O98   2.421       .  S
Cd97        O101   2.523       .  S
Cd97         O99   2.445       .  S
C100        O104   1.263       .  A
C100        C543   1.491       .  S
O105        C108   1.266       .  A
O105       Cd110   2.459       .  S
C106        O115   1.267       .  A
C106        O111   1.266       .  A
C106        C201   1.478       .  S
O107        C113   1.263       .  A
O107       Cd110   2.437       .  S
C108        O116   1.265       .  A
C108        C597   1.475       .  S
C109        O114   1.263       .  A
C109        O112   1.270       .  A
C109        C631   1.489       .  S
Cd110       O117   2.520       .  S
Cd110       O116   2.459       .  S
Cd110       O115   2.480       .  S
Cd110       O111   2.456       .  S
Cd110       O114   2.446       .  S
Cd110       O112   2.537       .  S
C113        O117   1.269       .  A
C113        C235   1.486       .  S
O118        C121   1.265       .  A
O118       Cd807   2.469       .  S
C119        O128   1.268       .  A
C119        O124   1.266       .  A
C119        C179   1.482       .  S
O120        C126   1.262       .  A
O120       Cd807   2.438       .  S
C121        O129   1.267       .  A
C121        C333   1.476       .  S
C122        O127   1.271       .  A
C122        O125   1.263       .  A
C122        C367   1.490       .  S
Cd123       O128   2.482       .  S
Cd123       O124   2.451       .  S
Cd123       O127   2.531       .  S
Cd123       O125   2.448       .  S
Cd123       O802   2.458   1_554  S
Cd123       O804   2.443   1_554  S
Cd123       O814   2.524   1_554  S
Cd123       O813   2.451   1_554  S
C126        O130   1.267       .  A
C126        C223   1.484       .  S
O129       Cd807   2.439       .  S
O130       Cd807   2.525       .  S
O131        C134   1.267       .  A
O131       Cd136   2.473       .  S
C132        O141   1.264       .  A
C132        O137   1.266       .  A
C132        C455   1.480       .  S
O133        C139   1.271       .  A
O133       Cd136   2.531       .  S
C134        O142   1.267       .  A
C134        C191   1.481       .  S
C135        O140   1.268       .  A
C135        O138   1.263       .  A
C135        C169   1.485       .  S
Cd136       O143   2.439       .  S
Cd136       O142   2.478       .  S
Cd136       O141   2.479       .  S
Cd136       O137   2.464       .  S
Cd136       O140   2.509       .  S
Cd136       O138   2.461       .  S
C139        O143   1.264       .  A
C139        C433   1.489       .  S
O144        C147   1.267       .  A
O144       Cd149   2.468       .  S
C145        O154   1.266       .  A
C145        O150   1.266       .  A
C145        C213   1.476       .  S
O146        C152   1.269       .  A
O146       Cd149   2.527       .  S
C147        O155   1.267       .  A
C147        C257   1.479       .  S
C148        O153   1.267       .  A
C148        O151   1.264       .  A
C148        C267   1.488       .  S
Cd149       O156   2.447       .  S
Cd149       O155   2.455       .  S
Cd149       O154   2.460       .  S
Cd149       O150   2.459       .  S
Cd149       O153   2.520       .  S
Cd149       O151   2.472       .  S
C152        O156   1.261       .  A
C152        C157   1.487       .  S
C157        C158   1.401       .  A
C157        C162   1.404       .  A
C158        C159   1.402       .  A
C158        H171   1.083       .  S
C159        C160   1.417       .  A
C159        H172   1.078       .  S
C160        C166   1.434   1_655  A
C160        C161   1.422       .  A
C161        C163   1.400       .  A
C161        C162   1.405       .  A
C162        H173   1.085       .  S
C163        C164   1.390   1_655  A
C163        H174   1.084       .  S
C164        C165   1.399       .  A
C164        H175   1.084       .  S
C165        C166   1.423       .  A
C165        C170   1.407       .  A
C166        C167   1.416       .  A
C167        C168   1.401       .  A
C167        H176   1.078       .  S
C168        C169   1.401       .  A
C168        H177   1.083       .  S
C169        C170   1.403       .  A
C170        H178   1.085       .  S
C179        C180   1.401       .  A
C179        C184   1.402       .  A
C180        C181   1.397       .  A
C180        H877   1.083   1_554  S
C181        C182   1.414       .  A
C181        H878   1.077       .  S
C182        C188   1.432       .  A
C182        C183   1.423       .  A
C183        C185   1.399       .  A
C183        C184   1.408       .  A
C184        H195   1.084       .  S
C185        C186   1.391       .  A
C185        H196   1.084       .  S
C186        C187   1.400       .  A
C186        H197   1.084       .  S
C187        C188   1.422       .  A
C187        C192   1.407       .  A
C188        C189   1.416       .  A
C189        C190   1.398       .  A
C189        H198   1.077       .  S
C190        C191   1.400       .  A
C190        H199   1.083       .  S
C191        C192   1.402       .  A
C192        H200   1.085       .  S
H193        C864   1.083       .  S
H194        C865   1.077       .  S
C201        C202   1.399       .  A
C201        C206   1.401       .  A
C202        C203   1.398       .  A
C202        H215   1.083       .  S
C203        C204   1.416       .  A
C203        H216   1.077       .  S
C204        C210   1.431       .  A
C204        C205   1.422       .  A
C205        C207   1.399       .  A
C205        C206   1.404       .  A
C206        H217   1.085       .  S
C207        C208   1.389       .  A
C207        H218   1.084       .  S
C208        C209   1.399       .  A
C208        H219   1.084       .  S
C209        C210   1.423       .  A
C209        C214   1.405       .  A
C210        C211   1.415       .  A
C211        C212   1.396       .  A
C211        H220   1.077       .  S
C212        C213   1.400       .  A
C212        H221   1.083       .  S
C213        C214   1.400       .  A
C214        H222   1.085       .  S
C223        C224   1.402       .  A
C223        C228   1.401       .  A
C224        C225   1.404       .  A
C224        H237   1.083       .  S
C225        C226   1.418       .  A
C225        H238   1.078       .  S
C226        C232   1.435   1_455  A
C226        C227   1.423       .  A
C227        C229   1.398       .  A
C227        C228   1.401       .  A
C228        H239   1.085       .  S
C229        C230   1.386   1_455  A
C229        H240   1.084       .  S
C230        C231   1.398       .  A
C230        H241   1.084       .  S
C231        C232   1.423       .  A
C231        C236   1.402       .  A
C232        C233   1.417       .  A
C233        C234   1.404       .  A
C233        H242   1.078       .  S
C234        C235   1.402       .  A
C234        H243   1.083       .  S
C235        C236   1.402       .  A
C236        H244   1.085       .  S
C245        C246   1.400       .  A
C245        C250   1.401       .  A
C246        C247   1.391       .  A
C246        H259   1.083       .  S
C247        C248   1.412       .  A
C247        H260   1.077       .  S
C248        C254   1.429       .  A
C248        C249   1.424       .  A
C249        C251   1.400       .  A
C249        C250   1.409       .  A
C250        H261   1.085       .  S
C251        C252   1.392       .  A
C251        H262   1.084       .  S
C252        C253   1.400       .  A
C252        H263   1.084       .  S
C253        C254   1.421       .  A
C253        C258   1.406       .  A
C254        C255   1.415       .  A
C255        C256   1.394       .  A
C255        H264   1.077       .  S
C256        C257   1.400       .  A
C256        H265   1.083       .  S
C257        C258   1.402       .  A
C258        H266   1.084       .  S
C267        C268   1.402       .  A
C267        C272   1.404       .  A
C268        C269   1.399       .  A
C268        H281   1.083       .  S
C269        C270   1.414       .  A
C269        H282   1.077       .  S
C270        C276   1.435       .  A
C270        C271   1.424       .  A
C271        C273   1.400       .  A
C271        C272   1.412       .  A
C272        H283   1.084       .  S
C273        C274   1.392       .  A
C273        H284   1.084       .  S
C274        C275   1.401       .  A
C274        H285   1.084       .  S
C275        C276   1.421       .  A
C275        C280   1.408       .  A
C276        C277   1.418       .  A
C277        C278   1.402       .  A
C277        H286   1.077       .  S
C278        C279   1.400       .  A
C278        H287   1.083       .  S
C279        C280   1.406       .  A
C280        H288   1.085       .  S
C289        C290   1.399       .  A
C289        C294   1.405       .  A
C290        C291   1.401       .  A
C290        H303   1.083       .  S
C291        C292   1.418       .  A
C291        H304   1.077       .  S
C292        C298   1.433       .  A
C292        C293   1.421       .  A
C293        C295   1.401       .  A
C293        C294   1.406       .  A
C294        H305   1.084       .  S
C295        C296   1.392       .  A
C295        H306   1.084       .  S
C296        C297   1.400       .  A
C296        H307   1.084       .  S
C297        C298   1.425       .  A
C297        C302   1.411       .  A
C298        C299   1.413       .  A
C299        C300   1.396       .  A
C299        H308   1.077       .  S
C300        C301   1.402       .  A
C300        H309   1.083       .  S
C301        C302   1.402       .  A
C302        H310   1.084       .  S
C311        C312   1.402       .  A
C311        C316   1.401       .  A
C312        C313   1.400       .  A
C312        H325   1.083       .  S
C313        C314   1.416       .  A
C313        H326   1.078       .  S
C314        C320   1.433       .  A
C314        C315   1.422       .  A
C315        C317   1.399       .  A
C315        C316   1.405       .  A
C316        H327   1.084       .  S
C317        C318   1.389       .  A
C317        H328   1.084       .  S
C318        C319   1.399       .  A
C318        H329   1.084       .  S
C319        C320   1.423       .  A
C319        C324   1.406       .  A
C320        C321   1.416       .  A
C321        C322   1.400       .  A
C321        H330   1.078       .  S
C322        C323   1.401       .  A
C322        H331   1.083       .  S
C323        C324   1.401       .  A
C324        H332   1.085       .  S
C333        C334   1.402       .  A
C333        C338   1.397       .  A
C334        C335   1.400       .  A
C334        H347   1.083       .  S
C335        C336   1.415       .  A
C335        H348   1.078       .  S
C336        C342   1.430       .  A
C336        C337   1.424       .  A
C337        C339   1.396       .  A
C337        C338   1.398       .  A
C338        H349   1.085       .  S
C339        C340   1.383       .  A
C339        H350   1.084       .  S
C340        C341   1.397       .  A
C340        H351   1.084       .  S
C341        C342   1.421       .  A
C341        C346   1.394       .  A
C342        C343   1.418       .  A
C343        C344   1.402       .  A
C343        H352   1.078       .  S
C344        C345   1.401       .  A
C344        H353   1.083       .  S
C345        C346   1.398       .  A
C346        H354   1.085       .  S
C355        C356   1.403       .  A
C355        C360   1.402       .  A
C356        C357   1.401       .  A
C356        H369   1.083       .  S
C357        C358   1.415       .  A
C357        H370   1.078       .  S
C358        C364   1.436       .  A
C358        C359   1.424       .  A
C359        C361   1.399       .  A
C359        C360   1.408       .  A
C360        H371   1.084       .  S
C361        C362   1.390       .  A
C361        H372   1.084       .  S
C362        C363   1.400       .  A
C362        H373   1.084       .  S
C363        C364   1.422       .  A
C363        C368   1.406       .  A
C364        C365   1.418       .  A
C365        C366   1.404       .  A
C365        H374   1.078       .  S
C366        C367   1.401       .  A
C366        H375   1.083       .  S
C367        C368   1.405       .  A
C368        H376   1.084       .  S
C377        C378   1.400       .  A
C377        C382   1.401       .  A
C378        C379   1.398       .  A
C378        H391   1.083       .  S
C379        C380   1.416       .  A
C379        H392   1.077       .  S
C380        C386   1.429       .  A
C380        C381   1.422       .  A
C381        C383   1.399       .  A
C381        C382   1.402       .  A
C382        H393   1.085       .  S
C383        C384   1.387       .  A
C383        H394   1.084       .  S
C384        C385   1.398       .  A
C384        H395   1.084       .  S
C385        C386   1.423       .  A
C385        C390   1.402       .  A
C386        C387   1.415       .  A
C387        C388   1.397       .  A
C387        H396   1.077       .  S
C388        C389   1.400       .  A
C388        H397   1.083       .  S
C389        C390   1.400       .  A
C390        H398   1.085       .  S
C399        C400   1.404       .  A
C399        C404   1.401       .  A
C400        C401   1.399       .  A
C400        H413   1.083       .  S
C401        C402   1.414       .  A
C401        H414   1.078       .  S
C402        C408   1.436       .  A
C402        C403   1.425       .  A
C403        C405   1.398       .  A
C403        C404   1.410       .  A
C404        H415   1.084       .  S
C405        C406   1.389       .  A
C405        H416   1.084       .  S
C406        C407   1.400       .  A
C406        H417   1.084       .  S
C407        C408   1.421       .  A
C407        C412   1.404       .  A
C408        C409   1.420       .  A
C409        C410   1.405       .  A
C409        H418   1.078       .  S
C410        C411   1.401       .  A
C410        H419   1.083       .  S
C411        C412   1.403       .  A
C412        H420   1.084       .  S
C421        C422   1.401       .  A
C421        C426   1.400       .  A
C422        C423   1.402       .  A
C422        H435   1.083       .  S
C423        C424   1.416       .  A
C423        H436   1.078       .  S
C424        C430   1.435       .  A
C424        C425   1.424       .  A
C425        C427   1.398       .  A
C425        C426   1.405       .  A
C426        H437   1.085       .  S
C427       C1112   1.388       .  A
C427        H438   1.084       .  S
C428        C429   1.398       .  A
C428       C1111   1.387   1_554  A
C428        H439   1.084       .  S
C429        C434   1.403       .  A
C429       C1114   1.422   1_554  A
C430        C431   1.418       .  A
C430       C1113   1.422       .  A
C431        C432   1.404       .  A
C431        H440   1.078       .  S
C432       C1117   1.402       .  A
C432        H441   1.083       .  S
C433        C434   1.402       .  A
C433       C1116   1.403       .  A
C434        H442   1.085       .  S
C443        C444   1.403       .  A
C443        C448   1.399       .  A
C444        C445   1.399       .  A
C444        H457   1.083       .  S
C445        C446   1.415       .  A
C445        H458   1.078       .  S
C446        C452   1.432       .  A
C446        C447   1.423       .  A
C447        C449   1.398       .  A
C447        C448   1.403       .  A
C448        H459   1.085       .  S
C449        C450   1.387       .  A
C449        H460   1.084       .  S
C450        C451   1.398       .  A
C450        H461   1.084       .  S
C451        C452   1.422       .  A
C451        C456   1.402       .  A
C452        C453   1.416       .  A
C453        C454   1.400       .  A
C453        H462   1.078       .  S
C454        C455   1.402       .  A
C454        H463   1.083       .  S
C455        C456   1.399       .  A
C456        H464   1.085       .  S
C465        C466   1.400       .  A
C465        C470   1.401       .  A
C466        C467   1.391       .  A
C466        H479   1.083       .  S
C467        C468   1.413       .  A
C467        H480   1.077       .  S
C468        C474   1.427       .  A
C468        C469   1.423       .  A
C469        C471   1.400       .  A
C469        C470   1.407       .  A
C470        H481   1.084       .  S
C471        C472   1.392       .  A
C471        H482   1.084       .  S
C472        C473   1.400       .  A
C472        H483   1.084       .  S
C473        C474   1.422       .  A
C473        C478   1.407       .  A
C474        C475   1.414       .  A
C475        C476   1.393       .  A
C475        H484   1.077       .  S
C476        C477   1.400       .  A
C476        H485   1.083       .  S
C477        C478   1.403       .  A
C478        H486   1.084       .  S
C487        C492   1.403       .  A
C487       C1172   1.401       .  A
C488        C489   1.406       .  A
C488       C1171   1.402   1_554  A
C488        H501   1.083       .  S
C489        C490   1.419       .  A
C489        H502   1.078       .  S
C490        C496   1.434       .  A
C490        C491   1.421       .  A
C491        C493   1.398       .  A
C491       C1176   1.399   1_554  A
C492       C1175   1.404       .  A
C492        H503   1.084       .  S
C493        C494   1.385       .  A
C493       H1188   1.084   1_554  S
C494        C495   1.397       .  A
C494        H505   1.084       .  S
C495        C496   1.423       .  A
C495        C500   1.400       .  A
C496        C497   1.417       .  A
C497        C498   1.403       .  A
C497        H506   1.078       .  S
C498        C499   1.402       .  A
C498        H507   1.083       .  S
C499        C500   1.399       .  A
C500        H508   1.085       .  S
H504       C1177   1.084       .  S
C509        C510   1.399       .  A
C509        C514   1.403       .  A
C510        C511   1.401       .  A
C510        H523   1.083       .  S
C511        C512   1.419       .  A
C511        H524   1.077   1_545  S
C512        C518   1.431   1_545  A
C512        C513   1.420       .  A
C513        C515   1.400       .  A
C513        C514   1.401       .  A
C514        H525   1.085       .  S
C515        C516   1.389       .  A
C515        H526   1.084       .  S
C516        C517   1.398   1_545  A
C516        H527   1.084       .  S
C517        C518   1.425       .  A
C517        C522   1.407       .  A
C518        C519   1.413       .  A
C519        C520   1.396       .  A
C519        H528   1.077       .  S
C520        C521   1.402       .  A
C520        H529   1.083       .  S
C521        C522   1.400       .  A
C522        H530   1.084       .  S
C531        C532   1.403       .  A
C531        C536   1.402       .  A
C532        C533   1.407       .  A
C532        H545   1.083       .  S
C533        C534   1.418       .  A
C533        H546   1.078       .  S
C534        C540   1.439       .  A
C534        C535   1.423       .  A
C535        C537   1.398       .  A
C535        C536   1.405       .  A
C536        H547   1.085       .  S
C537        C538   1.387       .  A
C537        H548   1.084       .  S
C538        C539   1.399       .  A
C538        H549   1.084       .  S
C539        C540   1.422       .  A
C539        C544   1.404       .  A
C540        C541   1.419       .  A
C541        C542   1.407       .  A
C541        H550   1.078       .  S
C542        C543   1.403       .  A
C542        H551   1.083       .  S
C543        C544   1.403       .  A
C544        H552   1.085       .  S
C553        C554   1.400       .  A
C553       C1242   1.403       .  A
C554       C1239   1.392       .  A
C554        H567   1.083       .  S
C555        C556   1.414       .  A
C555       C1238   1.394   1_554  A
C555       H1252   1.077       .  S
C556        C562   1.428       .  A
C556        C557   1.422       .  A
C557        C559   1.400       .  A
C557        C558   1.407   1_554  A
C558       C1237   1.403       .  A
C558        H569   1.084       .  S
C559        C560   1.391       .  A
C559        H570   1.084       .  S
C560        C561   1.400       .  A
C560        H571   1.084       .  S
C561        C562   1.423       .  A
C561        C566   1.407       .  A
C562        C563   1.414       .  A
C563        C564   1.392       .  A
C563        H572   1.077       .  S
C564        C565   1.398       .  A
C564        H573   1.084       .  S
C565        C566   1.401       .  A
C566        H574   1.084       .  S
H568       C1239   1.078       .  S
C575        C576   1.400       .  A
C575        C580   1.400       .  A
C576        C577   1.400       .  A
C576        H589   1.083       .  S
C577        C578   1.416       .  A
C577        H590   1.078       .  S
C578        C584   1.432       .  A
C578        C579   1.423       .  A
C579        C581   1.399       .  A
C579        C580   1.405       .  A
C580        H591   1.085       .  S
C581        C582   1.390       .  A
C581        H592   1.084       .  S
C582        C583   1.400       .  A
C582        H593   1.084       .  S
C583        C584   1.422       .  A
C583        C588   1.406       .  A
C584        C585   1.416       .  A
C585        C586   1.400       .  A
C585        H594   1.078       .  S
C586        C587   1.400       .  A
C586        H595   1.083       .  S
C587        C588   1.401       .  A
C588        H596   1.085       .  S
C597        C598   1.398       .  A
C597        C602   1.401       .  A
C598        C599   1.394       .  A
C598        H611   1.083       .  S
C599        C600   1.415       .  A
C599        H612   1.078       .  S
C600        C606   1.428       .  A
C600        C601   1.423       .  A
C601        C603   1.400       .  A
C601        C602   1.404       .  A
C602        H613   1.085       .  S
C603        C604   1.390       .  A
C603        H614   1.084       .  S
C604        C605   1.399       .  A
C604       H1299   1.084       .  S
C605        C606   1.422       .  A
C605       C1294   1.403       .  A
C606        C607   1.414       .  A
C607        C608   1.394       .  A
C607        H616   1.078       .  S
C608       C1293   1.399       .  A
C608        H617   1.083       .  S
C609        C610   1.399       .  A
C609       C1292   1.400       .  A
C610       C1289   1.399   1_554  A
C610        H618   1.085       .  S
H615       C1288   1.084       .  S
C619        C620   1.403       .  A
C619        C624   1.401       .  A
C620        C621   1.400       .  A
C620        H633   1.083       .  S
C621        C622   1.415       .  A
C621        H634   1.078       .  S
C622        C628   1.435       .  A
C622        C623   1.424       .  A
C623        C625   1.398       .  A
C623        C624   1.407       .  A
C624        H635   1.085       .  S
C625        C626   1.389       .  A
C625        H636   1.084       .  S
C626        C627   1.400       .  A
C626        H637   1.084       .  S
C627        C628   1.421       .  A
C627        C632   1.405       .  A
C628        C629   1.418       .  A
C629        C630   1.404       .  A
C629        H638   1.078       .  S
C630        C631   1.402       .  A
C630        H639   1.083       .  S
C631        C632   1.404       .  A
C632        H640   1.084       .  S
C641        C642   1.398       .  A
C641        C646   1.401       .  A
C642        C643   1.393       .  A
C642        H655   1.083       .  S
C643        C644   1.414       .  A
C643        H656   1.077       .  S
C644        C650   1.427       .  A
C644        C645   1.423       .  A
C645        C647   1.399       .  A
C645        C646   1.404       .  A
C646        H657   1.085       .  S
C647        C648   1.389       .  A
C647        H658   1.084       .  S
C648        C649   1.399       .  A
C648        H659   1.084       .  S
C649        C650   1.422       .  A
C649        C654   1.403       .  A
C650        C651   1.415       .  A
C651        C652   1.394       .  A
C651        H660   1.077       .  S
C652        C653   1.398       .  A
C652        H661   1.083       .  S
C653        C654   1.401       .  A
C654        H662   1.085       .  S
C663        C664   1.404       .  A
C663        C668   1.402       .  A
C664        C665   1.399       .  A
C664        H677   1.083       .  S
C665        C666   1.414       .  A
C665        H678   1.077       .  S
C666        C667   1.425       .  A
C666       C1356   1.436   1_565  A
C667        C669   1.399   1_565  A
C667        C668   1.412       .  A
C668        H679   1.084       .  S
C669       C1354   1.392       .  A
C669        H680   1.084       .  S
C670        C671   1.399   1_556  A
C670       C1353   1.389       .  A
C670        H681   1.084       .  S
C671        C672   1.421       .  A
C671        C676   1.403       .  A
C672        C673   1.420       .  A
C672       C1350   1.435   1_544  A
C673        C674   1.404       .  A
C673        H682   1.077   1_545  S
C674        C675   1.400       .  A
C674        H683   1.083       .  S
C675        C676   1.402       .  A
C676        H684   1.085       .  S
O685        C688   1.269       .  A
O685       Cd690   2.464       .  S
C686        O695   1.265       .  A
C686        O691   1.267       .  A
C686       C1293   1.475       .  S
O687        C693   1.263       .  A
O687       Cd690   2.462       .  S
C688        O696   1.267       .  A
C688       C1337   1.481       .  S
C689        O694   1.261       .  A
C689        O692   1.271       .  A
C689       C1359   1.490       .  S
Cd690       O697   2.518       .  S
Cd690       O696   2.467       .  S
Cd690       O695   2.445       .  S
Cd690       O691   2.451       .  S
Cd690       O694   2.452       .  S
Cd690       O692   2.536       .  S
C693        O697   1.267       .  A
C693       C1303   1.487       .  S
O698        C701   1.268       .  A
O698       Cd703   2.468       .  S
C699        O708   1.266       .  A
C699        O704   1.267       .  A
C699       C1237   1.480       .  S
O700        C706   1.270       .  A
O700       Cd703   2.552       .  S
C701        O709   1.267       .  A
C701       C1259   1.482       .  S
C702        O707   1.273       .  A
C702        O705   1.263       .  A
C702       C1347   1.486       .  S
Cd703       O710   2.454       .  S
Cd703       O709   2.469       .  S
Cd703       O708   2.452       .  S
Cd703       O704   2.478       .  S
Cd703       O707   2.524       .  S
Cd703       O705   2.442       .  S
C706        O710   1.262       .  A
C706       C1215   1.491       .  S
O711        C714   1.267       .  A
O711       Cd716   2.476       .  S
C712        O721   1.267       .  A
C712        O717   1.268       .  A
C712       C1325   1.483       .  S
O713        C719   1.270       .  A
O713       Cd716   2.542       .  S
C714        O722   1.265       .  A
C714       C1149   1.477       .  S
C715        O720   1.263       .  A
C715        O718   1.264       .  A
C715       C1183   1.487       .  S
Cd716       O723   2.432       .  S
Cd716       O722   2.435       .  S
Cd716       O721   2.457       .  S
Cd716       O717   2.483       .  S
Cd716       O720   2.485       .  S
Cd716       O718   2.508       .  S
C719        O723   1.260       .  A
C719       C1193   1.487       .  S
O724        C727   1.267       .  A
O724       Cd729   2.467       .  S
C725        O734   1.268       .  A
C725        O730   1.267       .  A
C725       C1271   1.483       .  S
O726        C732   1.269       .  A
O726       Cd729   2.539       .  S
C727        O735   1.265       .  A
C727       C1127   1.476       .  S
C728        O733   1.264       .  A
C728        O731   1.266       .  A
C728       C1105   1.488       .  S
Cd729       O736   2.446       .  S
Cd729       O735   2.442       .  S
Cd729       O734   2.478       .  S
Cd729       O730   2.463       .  S
Cd729       O733   2.459       .  S
Cd729       O731   2.522       .  S
C732        O736   1.261       .  A
C732       C1205   1.488       .  S
O737        C740   1.268       .  A
O737       Cd742   2.469       .  S
C738        O747   1.268       .  A
C738        O743   1.266       .  A
C738       C1073   1.481       .  S
O739        C745   1.263       .  A
O739       Cd742   2.476       .  S
C740        O748   1.264       .  A
C740       C1029   1.477       .  S
C741        O746   1.267       .  A
C741        O744   1.262       .  A
C741       C1039   1.476       .  S
Cd742       O749   2.482       .  S
Cd742       O748   2.439       .  S
Cd742       O747   2.471       .  S
Cd742       O743   2.468       .  S
Cd742       O746   2.502       .  S
Cd742       O744   2.443       .  S
C745        O749   1.262       .  A
C745       C1083   1.480       .  S
O750        C753   1.265       .  A
O750       Cd755   2.455       .  S
C751        O760   1.266       .  A
C751        O756   1.267       .  A
C751       C1161   1.477       .  S
O752        C758   1.262       .  A
O752       Cd755   2.408       .  S
C753        O761   1.267       .  A
C753        C995   1.481       .  S
C754        O759   1.272       .  A
C754        O757   1.263       .  A
C754       C1095   1.484       .  S
Cd755       O762   2.542       .  S
Cd755       O761   2.483       .  S
Cd755       O760   2.444       .  S
Cd755       O756   2.466       .  S
Cd755       O759   2.530       .  S
Cd755       O757   2.395       .  S
C758        O762   1.271       .  A
C758       C1171   1.486       .  S
O763       Cd768   2.470       .  S
C764        O773   1.264       .  A
C764        O769   1.269       .  A
C764        C929   1.474       .  S
O765        C771   1.268       .  A
C766        O774   1.263       .  A
C766       C1007   1.484       .  S
C767        O772   1.264       .  A
C767        O770   1.263       .  A
C767        C985   1.489       .  S
Cd768       O773   2.407       .  S
Cd768       O769   2.480       .  S
Cd768       O772   2.498       .  S
Cd768       O770   2.505       .  S
C771        O775   1.259       .  A
C771        C963   1.485       .  S
O776        C779   1.268       .  A
O776       Cd781   2.468       .  S
C777        O786   1.266       .  A
C777        O782   1.265       .  A
C777       C1249   1.475       .  S
O778        C784   1.271       .  A
O778       Cd781   2.524       .  S
C779        O787   1.266       .  A
C779       C1061   1.481       .  S
C780        O785   1.271       .  A
C780        O783   1.263       .  A
C780        C973   1.491       .  S
Cd781       O788   2.457       .  S
Cd781       O787   2.464       .  S
Cd781       O786   2.479       .  S
Cd781       O782   2.426       .  S
Cd781       O785   2.546       .  S
Cd781       O783   2.434       .  S
C784        O788   1.265       .  A
C784       C1227   1.492       .  S
O789        C792   1.265       .  A
O789       Cd794   2.475       .  S
C790        O799   1.267       .  A
C790        O795   1.266       .  A
C790        C885   1.478       .  S
O791        C797   1.263       .  A
O791       Cd794   2.456       .  S
C792        O800   1.265       .  A
C792       C1281   1.478       .  S
C793        O798   1.263       .  A
C793        O796   1.271       .  A
C793       C1315   1.489       .  S
Cd794       O801   2.516       .  S
Cd794       O800   2.449       .  S
Cd794       O799   2.465       .  S
Cd794       O795   2.451       .  S
Cd794       O798   2.432       .  S
Cd794       O796   2.535       .  S
C797        O801   1.268       .  A
C797        C919   1.486       .  S
O802        C805   1.267       .  A
C803        O812   1.267       .  A
C803        O808   1.265       .  A
C803        C863   1.474       .  S
O804        C810   1.262       .  A
C805        O813   1.266       .  A
C805       C1017   1.477       .  S
C806        O811   1.267       .  A
C806        O809   1.263       .  A
C806       C1051   1.483       .  S
Cd807       O812   2.450       .  S
Cd807       O808   2.446       .  S
Cd807       O811   2.504       .  S
Cd807       O809   2.449       .  S
C810        O814   1.270       .  A
C810        C907   1.485       .  S
O815        C818   1.267       .  A
O815       Cd820   2.453       .  S
C816        O825   1.264       .  A
C816        O821   1.266       .  A
C816       C1139   1.473       .  S
O817        C823   1.269       .  A
O817       Cd820   2.524       .  S
C818        O826   1.267       .  A
C818        C875   1.475       .  S
C819        O824   1.267       .  A
C819        O822   1.264       .  A
C819        C853   1.484       .  S
Cd820       O827   2.438       .  S
Cd820       O826   2.451       .  S
Cd820       O825   2.434       .  S
Cd820       O821   2.481       .  S
Cd820       O824   2.505       .  S
Cd820       O822   2.452       .  S
C823        O827   1.263       .  A
C823       C1117   1.487       .  S
O828        C831   1.267       .  A
O828       Cd833   2.455       .  S
C829        O838   1.267       .  A
C829        O834   1.264       .  A
C829        C897   1.474       .  S
O830        C836   1.270       .  A
O830       Cd833   2.554       .  S
C831        O839   1.266       .  A
C831        C941   1.470       .  S
C832        O837   1.271       .  A
C832        O835   1.263       .  A
C832        C951   1.489       .  S
Cd833       O840   2.422       .  S
Cd833       O839   2.405       .  S
Cd833       O838   2.464       .  S
Cd833       O834   2.446       .  S
Cd833       O837   2.529       .  S
Cd833       O835   2.449       .  S
C836        O840   1.260       .  A
C836        C841   1.488       .  S
C841        C842   1.402       .  A
C841        C846   1.402       .  A
C842        C843   1.407       .  A
C842        H855   1.083       .  S
C843        C844   1.419       .  A
C843        H856   1.078       .  S
C844        C850   1.436   1_655  A
C844        C845   1.421       .  A
C845        C847   1.399       .  A
C845        C846   1.402       .  A
C846        H857   1.085       .  S
C847        C848   1.386   1_655  A
C847        H858   1.084       .  S
C848        C849   1.398       .  A
C848        H859   1.084       .  S
C849        C850   1.424       .  A
C849        C854   1.404       .  A
C850        C851   1.417       .  A
C851        C852   1.404       .  A
C851        H860   1.078       .  S
C852        C853   1.402       .  A
C852        H861   1.083       .  S
C853        C854   1.400       .  A
C854        H862   1.085       .  S
C863        C864   1.400       .  A
C863        C868   1.400       .  A
C864        C865   1.395       .  A
C865        C866   1.415       .  A
C866        C872   1.427       .  A
C866        C867   1.422       .  A
C867        C869   1.399       .  A
C867        C868   1.402       .  A
C868        H879   1.084       .  S
C869        C870   1.389       .  A
C869        H880   1.084       .  S
C870        C871   1.399       .  A
C870        H881   1.084       .  S
C871        C872   1.422       .  A
C871        C876   1.404       .  A
C872        C873   1.414       .  A
C873        C874   1.395       .  A
C873        H882   1.077       .  S
C874        C875   1.399       .  A
C874        H883   1.083       .  S
C875        C876   1.401       .  A
C876        H884   1.085       .  S
C885        C886   1.400       .  A
C885        C890   1.401       .  A
C886        C887   1.397       .  A
C886        H899   1.083       .  S
C887        C888   1.415       .  A
C887        H900   1.077       .  S
C888        C894   1.429       .  A
C888        C889   1.422       .  A
C889        C891   1.399       .  A
C889        C890   1.403       .  A
C890        H901   1.084       .  S
C891        C892   1.388       .  A
C891        H902   1.084       .  S
C892        C893   1.398       .  A
C892        H903   1.084       .  S
C893        C894   1.423       .  A
C893        C898   1.403       .  A
C894        C895   1.415       .  A
C895        C896   1.396       .  A
C895        H904   1.077       .  S
C896        C897   1.400       .  A
C896        H905   1.083       .  S
C897        C898   1.398       .  A
C898        H906   1.085       .  S
C907        C908   1.401       .  A
C907        C912   1.403       .  A
C908        C909   1.403       .  A
C908        H921   1.083       .  S
C909        C910   1.417       .  A
C909        H922   1.078       .  S
C910        C916   1.435   1_455  A
C910        C911   1.422       .  A
C911        C913   1.399       .  A
C911        C912   1.405       .  A
C912        H923   1.085       .  S
C913        C914   1.389   1_455  A
C913        H924   1.084       .  S
C914        C915   1.399       .  A
C914        H925   1.084       .  S
C915        C916   1.423       .  A
C915        C920   1.406       .  A
C916        C917   1.417       .  A
C917        C918   1.402       .  A
C917        H926   1.078       .  S
C918        C919   1.401       .  A
C918        H927   1.083       .  S
C919        C920   1.403       .  A
C920        H928   1.085       .  S
C929        C930   1.399       .  A
C929        C934   1.402       .  A
C930        C931   1.388       .  A
C930        H943   1.083       .  S
C931        C932   1.412       .  A
C931        H944   1.077       .  S
C932        C938   1.423       .  A
C932        C933   1.422       .  A
C933        C935   1.400       .  A
C933        C934   1.406       .  A
C934        H945   1.084       .  S
C935        C936   1.392       .  A
C935        H946   1.084       .  S
C936        C937   1.400       .  A
C936        H947   1.084       .  S
C937        C938   1.422       .  A
C937        C942   1.405       .  A
C938        C939   1.412       .  A
C939        C940   1.388       .  A
C939        H948   1.076       .  S
C940        C941   1.397       .  A
C940        H949   1.083       .  S
C941        C942   1.402       .  A
C942        H950   1.084       .  S
C951        C952   1.404       .  A
C951        C956   1.402       .  A
C952        C953   1.398       .  A
C952        H965   1.083       .  S
C953        C954   1.413       .  A
C953        H966   1.077       .  S
C954        C960   1.435       .  A
C954        C955   1.425       .  A
C955        C957   1.399       .  A
C955        C956   1.411       .  A
C956        H967   1.084       .  S
C957        C958   1.391       .  A
C957        H968   1.084       .  S
C958        C959   1.400       .  A
C958        H969   1.084       .  S
C959        C960   1.421       .  A
C959        C964   1.406       .  A
C960        C961   1.419       .  A
C961        C962   1.403       .  A
C961        H970   1.077       .  S
C962        C963   1.400       .  A
C962        H971   1.083       .  S
C963        C964   1.404       .  A
C964        H972   1.085       .  S
C973        C974   1.403       .  A
C973        C978   1.403       .  A
C974        C975   1.407       .  A
C974        H987   1.083       .  S
C975        C976   1.419       .  A
C975        H988   1.078       .  S
C976        C982   1.438       .  A
C976        C977   1.421       .  A
C977        C979   1.399       .  A
C977        C978   1.403       .  A
C978        H989   1.084       .  S
C979        C980   1.388       .  A
C979        H990   1.084       .  S
C980        C981   1.398       .  A
C980        H991   1.084       .  S
C981        C982   1.424       .  A
C981        C986   1.407       .  A
C982        C983   1.416       .  A
C983        C984   1.404       .  A
C983        H992   1.078       .  S
C984        C985   1.404       .  A
C984        H993   1.083       .  S
C985        C986   1.401       .  A
C986        H994   1.084       .  S
C995        C996   1.400       .  A
C995       C1000   1.401       .  A
C996        C997   1.400       .  A
C996       H1009   1.083       .  S
C997        C998   1.417       .  A
C997       H1010   1.077       .  S
C998       C1004   1.433       .  A
C998        C999   1.422       .  A
C999       C1001   1.399       .  A
C999       C1000   1.405       .  A
C1000      H1011   1.085       .  S
C1001      C1002   1.389       .  A
C1001      H1012   1.084       .  S
C1002      C1003   1.399       .  A
C1002      H1013   1.084       .  S
C1003      C1004   1.423       .  A
C1003      C1008   1.407       .  A
C1004      C1005   1.415       .  A
C1005      C1006   1.399       .  A
C1005      H1014   1.077       .  S
C1006      C1007   1.402       .  A
C1006      H1015   1.083       .  S
C1007      C1008   1.402       .  A
C1008      H1016   1.084       .  S
C1017      C1018   1.400       .  A
C1017      C1022   1.401       .  A
C1018      C1019   1.395       .  A
C1018      H1031   1.083       .  S
C1019      C1020   1.415       .  A
C1019      H1032   1.077       .  S
C1020      C1026   1.429       .  A
C1020      C1021   1.422       .  A
C1021      C1023   1.399       .  A
C1021      C1022   1.403       .  A
C1022      H1033   1.085       .  S
C1023      C1024   1.389       .  A
C1023      H1034   1.084       .  S
C1024      C1025   1.399       .  A
C1024      H1035   1.084       .  S
C1025      C1026   1.422       .  A
C1025      C1030   1.403       .  A
C1026      C1027   1.415       .  A
C1027      C1028   1.396       .  A
C1027      H1036   1.077       .  S
C1028      C1029   1.399       .  A
C1028      H1037   1.083       .  S
C1029      C1030   1.402       .  A
C1030      H1038   1.085       .  S
C1039      C1040   1.400       .  A
C1039      C1044   1.399       .  A
C1040      C1041   1.397       .  A
C1040      H1053   1.084       .  S
C1041      C1042   1.414       .  A
C1041      H1054   1.077       .  S
C1042      C1048   1.432       .  A
C1042      C1043   1.424       .  A
C1043      C1045   1.399       .  A
C1043      C1044   1.406       .  A
C1044      H1055   1.085       .  S
C1045      C1046   1.389       .  A
C1045      H1056   1.084       .  S
C1046      C1047   1.400       .  A
C1046      H1057   1.084       .  S
C1047      C1048   1.421       .  A
C1047      C1052   1.404       .  A
C1048      C1049   1.417       .  A
C1049      C1050   1.400       .  A
C1049      H1058   1.077       .  S
C1050      C1051   1.400       .  A
C1050      H1059   1.083       .  S
C1051      C1052   1.403       .  A
C1052      H1060   1.084       .  S
C1061      C1062   1.400       .  A
C1061      C1066   1.403       .  A
C1062      C1063   1.397       .  A
C1062      H1075   1.083       .  S
C1063      C1064   1.415       .  A
C1063      H1076   1.077       .  S
C1064      C1070   1.430       .  A
C1064      C1065   1.422       .  A
C1065      C1067   1.400       .  A
C1065      C1066   1.407       .  A
C1066      H1077   1.084       .  S
C1067      C1068   1.391       .  A
C1067      H1078   1.084       .  S
C1068      C1069   1.400       .  A
C1068      H1079   1.084       .  S
C1069      C1070   1.422       .  A
C1069      C1074   1.407       .  A
C1070      C1071   1.415       .  A
C1071      C1072   1.397       .  A
C1071      H1080   1.077       .  S
C1072      C1073   1.400       .  A
C1072      H1081   1.083       .  S
C1073      C1074   1.402       .  A
C1074      H1082   1.084       .  S
C1083      C1084   1.402       .  A
C1083      C1088   1.399       .  A
C1084      C1085   1.400       .  A
C1084      H1097   1.083       .  S
C1085      C1086   1.415       .  A
C1085      H1098   1.078       .  S
C1086      C1092   1.433       .  A
C1086      C1087   1.425       .  A
C1087      C1089   1.397       .  A
C1087      C1088   1.403       .  A
C1088      H1099   1.085       .  S
C1089      C1090   1.386       .  A
C1089      H1100   1.084       .  S
C1090      C1091   1.399       .  A
C1090      H1101   1.084       .  S
C1091      C1092   1.420       .  A
C1091      C1096   1.399       .  A
C1092      C1093   1.420       .  A
C1093      C1094   1.405       .  A
C1093      H1102   1.078       .  S
C1094      C1095   1.401       .  A
C1094      H1103   1.083       .  S
C1095      C1096   1.402       .  A
C1096      H1104   1.084       .  S
C1105      C1106   1.404       .  A
C1105      C1110   1.401       .  A
C1106      C1107   1.406       .  A
C1106      H1119   1.083       .  S
C1107      C1108   1.418       .  A
C1107      H1120   1.078       .  S
C1108      C1114   1.437       .  A
C1108      C1109   1.423       .  A
C1109      C1111   1.398       .  A
C1109      C1110   1.404       .  A
C1110      H1121   1.085       .  S
C1111      H1122   1.084       .  S
C1112      C1113   1.399       .  A
C1112      H1123   1.084       .  S
C1113      C1118   1.403       .  A
C1114      C1115   1.418       .  A
C1115      C1116   1.406   1_556  A
C1115      H1124   1.078       .  S
C1116      H1125   1.083       .  S
C1117      C1118   1.403       .  A
C1118      H1126   1.084       .  S
C1127      C1128   1.400       .  A
C1127      C1132   1.402       .  A
C1128      C1129   1.393       .  A
C1128      H1141   1.083       .  S
C1129      C1130   1.414       .  A
C1129      H1142   1.077       .  S
C1130      C1136   1.427       .  A
C1130      C1131   1.422       .  A
C1131      C1133   1.400       .  A
C1131      C1132   1.405       .  A
C1132      H1143   1.084       .  S
C1133      C1134   1.391       .  A
C1133      H1144   1.084       .  S
C1134      C1135   1.400       .  A
C1134      H1145   1.084       .  S
C1135      C1136   1.423       .  A
C1135      C1140   1.406       .  A
C1136      C1137   1.414       .  A
C1137      C1138   1.392       .  A
C1137      H1146   1.077       .  S
C1138      C1139   1.398       .  A
C1138      H1147   1.084       .  S
C1139      C1140   1.400       .  A
C1140      H1148   1.085       .  S
C1149      C1150   1.400       .  A
C1149      C1154   1.402       .  A
C1150      C1151   1.393       .  A
C1150      H1163   1.083       .  S
C1151      C1152   1.413       .  A
C1151      H1164   1.077       .  S
C1152      C1158   1.427       .  A
C1152      C1153   1.422       .  A
C1153      C1155   1.400       .  A
C1153      C1154   1.406       .  A
C1154      H1165   1.084       .  S
C1155      C1156   1.392       .  A
C1155      H1166   1.084       .  S
C1156      C1157   1.400       .  A
C1156      H1167   1.084       .  S
C1157      C1158   1.422       .  A
C1157      C1162   1.406       .  A
C1158      C1159   1.414       .  A
C1159      C1160   1.393       .  A
C1159      H1168   1.077       .  S
C1160      C1161   1.399       .  A
C1160      H1169   1.083       .  S
C1161      C1162   1.402       .  A
C1162      H1170   1.084       .  S
C1171      C1176   1.402       .  A
C1172      C1173   1.404       .  A
C1172      H1185   1.083       .  S
C1173      C1174   1.418       .  A
C1173      H1186   1.076       .  S
C1174      C1180   1.435       .  A
C1174      C1175   1.422       .  A
C1175      C1177   1.399       .  A
C1176      H1187   1.085       .  S
C1177      C1178   1.388       .  A
C1178      C1179   1.399       .  A
C1178      H1189   1.084       .  S
C1179      C1180   1.423       .  A
C1179      C1184   1.406       .  A
C1180      C1181   1.416       .  A
C1181      C1182   1.402       .  A
C1181      H1190   1.076       .  S
C1182      C1183   1.402       .  A
C1182      H1191   1.083       .  S
C1183      C1184   1.402       .  A
C1184      H1192   1.084       .  S
C1193      C1194   1.400       .  A
C1193      C1198   1.405       .  A
C1194      C1195   1.403       .  A
C1194      H1207   1.083       .  S
C1195      C1196   1.419       .  A
C1195      H1208   1.078   1_545  S
C1196      C1202   1.434   1_545  A
C1196      C1197   1.420       .  A
C1197      C1199   1.401       .  A
C1197      C1198   1.404       .  A
C1198      H1209   1.084       .  S
C1199      C1200   1.391       .  A
C1199      H1210   1.084       .  S
C1200      C1201   1.399   1_545  A
C1200      H1211   1.084       .  S
C1201      C1202   1.425       .  A
C1201      C1206   1.411       .  A
C1202      C1203   1.412       .  A
C1203      C1204   1.397       .  A
C1203      H1212   1.078       .  S
C1204      C1205   1.404       .  A
C1204      H1213   1.083       .  S
C1205      C1206   1.402       .  A
C1206      H1214   1.084       .  S
C1215      C1216   1.402       .  A
C1215      C1220   1.403       .  A
C1216      C1217   1.407       .  A
C1216      H1229   1.083       .  S
C1217      C1218   1.418       .  A
C1217      H1230   1.078       .  S
C1218      C1224   1.439       .  A
C1218      C1219   1.422       .  A
C1219      C1221   1.399       .  A
C1219      C1220   1.406       .  A
C1220      H1231   1.085       .  S
C1221      C1222   1.389       .  A
C1221      H1232   1.084       .  S
C1222      C1223   1.399       .  A
C1222      H1233   1.084       .  S
C1223      C1224   1.423       .  A
C1223      C1228   1.407       .  A
C1224      C1225   1.418       .  A
C1225      C1226   1.406       .  A
C1225      H1234   1.078       .  S
C1226      C1227   1.403       .  A
C1226      H1235   1.083       .  S
C1227      C1228   1.404       .  A
C1228      H1236   1.084       .  S
C1237      C1238   1.400       .  A
C1238      H1251   1.083       .  S
C1239      C1240   1.412       .  A
C1240      C1246   1.424       .  A
C1240      C1241   1.421       .  A
C1241      C1243   1.401       .  A
C1241      C1242   1.406       .  A
C1242      H1253   1.084       .  S
C1243      C1244   1.393       .  A
C1243      H1254   1.084       .  S
C1244      C1245   1.401       .  A
C1244      H1255   1.084       .  S
C1245      C1246   1.422       .  A
C1245      C1250   1.407       .  A
C1246      C1247   1.412       .  A
C1247      C1248   1.391       .  A
C1247      H1256   1.078       .  S
C1248      C1249   1.399       .  A
C1248      H1257   1.083       .  S
C1249      C1250   1.402       .  A
C1250      H1258   1.084       .  S
C1259      C1260   1.401       .  A
C1259      C1264   1.401       .  A
C1260      C1261   1.399       .  A
C1260      H1273   1.083       .  S
C1261      C1262   1.416       .  A
C1261      H1274   1.078       .  S
C1262      C1268   1.433       .  A
C1262      C1263   1.423       .  A
C1263      C1265   1.399       .  A
C1263      C1264   1.406       .  A
C1264      H1275   1.085       .  S
C1265      C1266   1.390       .  A
C1265      H1276   1.084       .  S
C1266      C1267   1.399       .  A
C1266      H1277   1.084       .  S
C1267      C1268   1.423       .  A
C1267      C1272   1.406       .  A
C1268      C1269   1.416       .  A
C1269      C1270   1.399       .  A
C1269      H1278   1.077       .  S
C1270      C1271   1.401       .  A
C1270      H1279   1.083       .  S
C1271      C1272   1.402       .  A
C1272      H1280   1.084       .  S
C1281      C1282   1.401       .  A
C1281      C1286   1.399       .  A
C1282      C1283   1.398       .  A
C1282      H1295   1.083       .  S
C1283      C1284   1.415       .  A
C1283      H1296   1.078       .  S
C1284      C1290   1.430       .  A
C1284      C1285   1.423       .  A
C1285      C1287   1.398       .  A
C1285      C1286   1.401       .  A
C1286      H1297   1.085       .  S
C1287      C1288   1.386       .  A
C1287      H1298   1.084       .  S
C1288      C1289   1.398       .  A
C1289      C1290   1.422       .  A
C1290      C1291   1.417       .  A
C1291      C1292   1.399   1_556  A
C1291      H1300   1.078       .  S
C1292      H1301   1.083       .  S
C1293      C1294   1.402       .  A
C1294      H1302   1.085       .  S
C1303      C1304   1.403       .  A
C1303      C1308   1.401       .  A
C1304      C1305   1.404       .  A
C1304      H1317   1.083       .  S
C1305      C1306   1.417       .  A
C1305      H1318   1.078       .  S
C1306      C1312   1.437       .  A
C1306      C1307   1.424       .  A
C1307      C1309   1.398       .  A
C1307      C1308   1.404       .  A
C1308      H1319   1.085       .  S
C1309      C1310   1.387       .  A
C1309      H1320   1.084       .  S
C1310      C1311   1.399       .  A
C1310      H1321   1.084       .  S
C1311      C1312   1.422       .  A
C1311      C1316   1.403       .  A
C1312      C1313   1.419       .  A
C1313      C1314   1.406       .  A
C1313      H1322   1.078       .  S
C1314      C1315   1.402       .  A
C1314      H1323   1.083       .  S
C1315      C1316   1.402       .  A
C1316      H1324   1.085       .  S
C1325      C1326   1.402       .  A
C1325      C1330   1.401       .  A
C1326      C1327   1.401       .  A
C1326      H1339   1.083       .  S
C1327      C1328   1.417       .  A
C1327      H1340   1.078       .  S
C1328      C1334   1.433       .  A
C1328      C1329   1.422       .  A
C1329      C1331   1.398       .  A
C1329      C1330   1.404       .  A
C1330      H1341   1.084       .  S
C1331      C1332   1.388       .  A
C1331      H1342   1.084       .  S
C1332      C1333   1.398       .  A
C1332      H1343   1.084       .  S
C1333      C1334   1.423       .  A
C1333      C1338   1.404       .  A
C1334      C1335   1.416       .  A
C1335      C1336   1.400       .  A
C1335      H1344   1.078       .  S
C1336      C1337   1.402       .  A
C1336      H1345   1.083       .  S
C1337      C1338   1.399       .  A
C1338      H1346   1.085       .  S
C1347      C1348   1.404       .  A
C1347      C1352   1.400       .  A
C1348      C1349   1.400   1_556  A
C1348      H1361   1.084   1_556  S
C1349      C1350   1.414   1_554  A
C1349      H1362   1.077       .  S
C1350      C1351   1.425       .  A
C1351      C1353   1.398   1_565  A
C1351      C1352   1.409       .  A
C1352      H1363   1.084       .  S
C1353      H1364   1.084       .  S
C1354      C1355   1.401       .  A
C1354      H1365   1.084       .  S
C1355      C1356   1.421       .  A
C1355      C1360   1.408       .  A
C1356      C1357   1.419       .  A
C1357      C1358   1.403       .  A
C1357      H1366   1.077   1_545  S
C1358      C1359   1.400       .  A
C1358      H1367   1.083       .  S
C1359      C1360   1.406       .  A
C1360      H1368   1.085       .  S
