geometry optimzed in LAMMPS
_audit_creation_date              2020-12-01 
_audit_creation_method            'lammps2cif' 
_symmetry_space_group_name_H-M    'P1' 
_symmetry_Int_Tables_number       1 
_symmetry_cell_setting            triclinic 
loop_ 
_symmetry_equiv_pos_as_xyz 
  x,y,z 
_cell_length_a                    45.76085842 
_cell_length_b                    45.73849584061053 
_cell_length_c                    69.15120816823027 
_cell_angle_alpha                 90.01040166720107 
_cell_angle_beta                  90.0884295750511 
_cell_angle_gamma                 89.93488119113336 
loop_ 
_atom_site_label 
_atom_site_type_symbol 
_atom_site_fract_x 
_atom_site_fract_y 
_atom_site_fract_z 
_atom_site_charge 
O1          O  0.42322956  0.11581614  0.12724350    -0.74700
O2          O  0.39639687  0.19562428  0.13081329    -0.74700
O3          O  0.42130956  0.15657636  0.15568222    -0.74700
O4          O  0.39933233  0.15479277  0.10230274    -0.74800
O5          O  0.35479627  0.13918015  0.11004020    -0.74700
O6          O  0.37727270  0.14039217  0.16413108    -0.74700
O7          O  0.35242446  0.17911434  0.13920007    -0.74700
O8          O  0.37866610  0.10054073  0.13533798    -0.74700
Ni9        Ni  0.41161645  0.15631747  0.12872102     1.25400
Ni10       Ni  0.36419565  0.13932685  0.13745058     1.25400
C11         C  0.40519700  0.09504524  0.13089077     0.87500
C12         C  0.36974529  0.20037685  0.13569349     0.87500
C13         C  0.40333266  0.14829864  0.16875669     0.87500
C14         C  0.37376775  0.14642056  0.09719492     0.87700
O15         O  0.46771733  0.80917995  0.12861534    -0.74700
O16         O  0.49683949  0.73022801  0.13060576    -0.74700
O17         O  0.47274358  0.76793562  0.15648147    -0.74700
O18         O  0.49115995  0.77150840  0.10265298    -0.74800
O19         O  0.53571712  0.78807899  0.10954649    -0.74700
O20         O  0.51687308  0.78509242  0.16395975    -0.74700
O21         O  0.54090110  0.74756829  0.13821249    -0.74700
O22         O  0.51228997  0.82561551  0.13571275    -0.74700
Ni23       Ni  0.48055974  0.76908412  0.12932276     1.25400
Ni24       Ni  0.52804695  0.78714258  0.13707496     1.25400
C25         C  0.48531788  0.83040448  0.13201341     0.87500
C26         C  0.52376363  0.72601962  0.13501336     0.87500
C27         C  0.49143421  0.77623872  0.16914338     0.87500
C28         C  0.51627261  0.78048318  0.09709060     0.87700
O29         O  0.42635349  0.11771026  0.88599689    -0.74700
O30         O  0.39754483  0.19691514  0.88320907    -0.74700
O31         O  0.40086277  0.15514344  0.91110425    -0.74700
O32         O  0.42412831  0.15927512  0.85818410    -0.74800
O33         O  0.38067586  0.14247898  0.84886036    -0.74700
O34         O  0.35699712  0.13847809  0.90258216    -0.74700
O35         O  0.35417851  0.17959017  0.87411045    -0.74700
O36         O  0.38249744  0.10154608  0.87690203    -0.74700
Ni37       Ni  0.41373671  0.15792299  0.88493383     1.25400
Ni38       Ni  0.36700027  0.14002357  0.87530491     1.25400
C39         C  0.40899335  0.09660694  0.88177066     0.87500
C40         C  0.37086188  0.20117850  0.87813802     0.87500
C41         C  0.37549483  0.14574696  0.91575929     0.87500
C42         C  0.40672125  0.15096981  0.84476173     0.87700
O43         O  0.46788348  0.81061424  0.88511503    -0.74700
O44         O  0.49424798  0.73083375  0.88164847    -0.74700
O45         O  0.49113172  0.77131406  0.91007590    -0.74700
O46         O  0.47025291  0.77011370  0.85652334    -0.74800
O47         O  0.51456668  0.78610430  0.84854318    -0.74700
O48         O  0.53586431  0.78686410  0.90271837    -0.74700
O49         O  0.53851541  0.74698260  0.87355025    -0.74700
O50         O  0.51266953  0.82588284  0.87759993    -0.74700
Ni51       Ni  0.47930545  0.77014581  0.88358107     1.25400
Ni52       Ni  0.52700238  0.78695479  0.87531189     1.25400
C53         C  0.48612842  0.83140410  0.88207757     0.87500
C54         C  0.52096785  0.72589356  0.87709644     0.87500
C55         C  0.51671665  0.77936326  0.91535729     0.87500
C56         C  0.48863183  0.77822940  0.84364422     0.87700
O57         O  0.42460129  0.80946678  0.62709783    -0.74700
O58         O  0.39765586  0.72971202  0.62889103    -0.74700
O59         O  0.40114388  0.77146634  0.60125540    -0.74700
O60         O  0.42183718  0.76782876  0.65489214    -0.74800
O61         O  0.37748132  0.78359947  0.66305637    -0.74700
O62         O  0.35657658  0.78721914  0.60893304    -0.74700
O63         O  0.35343670  0.74593877  0.63709102    -0.74700
O64         O  0.37996888  0.82476773  0.63505244    -0.74700
Ni65       Ni  0.41288677  0.76901808  0.62777879     1.25400
Ni66       Ni  0.36528099  0.78586191  0.63631594     1.25400
C67         C  0.40659979  0.83026726  0.63082237     0.87500
C68         C  0.37081972  0.72482490  0.63316090     0.87500
C69         C  0.37561499  0.78002550  0.59613966     0.87500
C70         C  0.40344229  0.77567733  0.66786242     0.87700
O71         O  0.47161649  0.11595109  0.63012406    -0.74700
O72         O  0.50099800  0.19494076  0.63172865    -0.74700
O73         O  0.49469426  0.15345996  0.60392248    -0.74700
O74         O  0.47711556  0.15759023  0.65785654    -0.74800
O75         O  0.52129580  0.14024600  0.66508034    -0.74700
O76         O  0.53930801  0.13662644  0.61045088    -0.74700
O77         O  0.54517829  0.17734248  0.63869982    -0.74700
O78         O  0.51624618  0.09936344  0.63694284    -0.74700
Ni79       Ni  0.48454098  0.15609661  0.63067244     1.25400
Ni80       Ni  0.53208551  0.13782620  0.63805143     1.25400
C81         C  0.48926790  0.09461226  0.63327225     0.87500
C82         C  0.52820909  0.19903255  0.63538373     0.87500
C83         C  0.51970490  0.14443767  0.59814869     0.87500
C84         C  0.49598534  0.14938756  0.67042587     0.87700
O85         O  0.42505703  0.81194237  0.38576353    -0.74700
O86         O  0.39588184  0.73324527  0.38186113    -0.74700
O87         O  0.42233861  0.77139166  0.35721409    -0.74700
O88         O  0.39947062  0.77367289  0.41019619    -0.74800
O89         O  0.35559222  0.79087734  0.40207440    -0.74700
O90         O  0.37895099  0.78891524  0.34827874    -0.74700
O91         O  0.35249985  0.75093026  0.37294502    -0.74700
O92         O  0.38121947  0.82888830  0.37726367    -0.74700
Ni93       Ni  0.41221336  0.77193928  0.38401142     1.25400
Ni94       Ni  0.36548831  0.79048251  0.37480443     1.25400
C95         C  0.40772029  0.83342138  0.38235570     0.87500
C96         C  0.36913265  0.72923260  0.37695109     0.87500
C97         C  0.40478804  0.78000681  0.34395199     0.87500
C98         C  0.37402333  0.78264869  0.41504055     0.87700
O99         O  0.46988235  0.11806298  0.38642084    -0.74700
O100        O  0.49505161  0.19797140  0.38142251    -0.74700
O101        O  0.47168192  0.15724225  0.35698879    -0.74700
O102        O  0.49265525  0.15867265  0.41067886    -0.74800
O103        O  0.53753663  0.14329473  0.40349442    -0.74700
O104        O  0.51627182  0.14155216  0.34934748    -0.74700
O105        O  0.53958276  0.18211150  0.37363416    -0.74700
O106        O  0.51480831  0.10298073  0.37902220    -0.74700
Ni107      Ni  0.48073599  0.15856618  0.38410912     1.25400
Ni108      Ni  0.52865214  0.14201408  0.37610376     1.25400
C109        C  0.48832606  0.09734418  0.38358360     0.87500
C110        C  0.52169523  0.20310953  0.37680909     0.87500
C111        C  0.49021894  0.14876596  0.34427313     0.87500
C112        C  0.51834656  0.15099681  0.41606539     0.87700
O113        O  0.10118926  0.44096656  0.12763481    -0.74700
O114        O  0.18036622  0.41283438  0.13155865    -0.74700
O115        O  0.14034672  0.41721393  0.10278486    -0.74700
O116        O  0.14123304  0.43734529  0.15641084    -0.74800
O117        O  0.12396337  0.39335720  0.16407483    -0.74700
O118        O  0.12423797  0.37254195  0.10978978    -0.74700
O119        O  0.16331864  0.36880915  0.13945987    -0.74700
O120        O  0.08504445  0.39628667  0.13465820    -0.74700
Ni121      Ni  0.14141046  0.42863320  0.12934654     1.25400
Ni122      Ni  0.12361731  0.38114133  0.13725387     1.25400
C123        C  0.08003548  0.42309418  0.13055269     0.87500
C124        C  0.18478141  0.38602799  0.13620949     0.87500
C125        C  0.13205293  0.39180872  0.09728811     0.87500
C126        C  0.13224694  0.41910574  0.16912494     0.87700
O127        O  0.79393862  0.48466935  0.13109923    -0.74700
O128        O  0.71460923  0.51301499  0.13443504    -0.74700
O129        O  0.75511232  0.50863386  0.10600264    -0.74700
O130        O  0.75329755  0.48803957  0.15952149    -0.74800
O131        O  0.77010163  0.53204719  0.16761761    -0.74700
O132        O  0.77146901  0.55310052  0.11336172    -0.74700
O133        O  0.73185736  0.55691642  0.14244084    -0.74700
O134        O  0.80993298  0.52917800  0.13876101    -0.74700
Ni135      Ni  0.75362221  0.49702155  0.13251236     1.25400
Ni136      Ni  0.77138979  0.54437865  0.14082115     1.25400
C137        C  0.81503851  0.50250469  0.13439734     0.87500
C138        C  0.71032355  0.53992949  0.13893087     0.87500
C139        C  0.76359421  0.53405404  0.10070101     0.87500
C140        C  0.76166949  0.50625557  0.17244842     0.87700
O141        O  0.10079923  0.44330986  0.88553311    -0.74700
O142        O  0.18051337  0.41574838  0.88177002    -0.74700
O143        O  0.14123871  0.44049911  0.85683621    -0.74700
O144        O  0.14035945  0.41940473  0.91039186    -0.74800
O145        O  0.12384950  0.37502116  0.90289905    -0.74700
O146        O  0.12514177  0.39619544  0.84880007    -0.74700
O147        O  0.16365245  0.37164046  0.87385448    -0.74700
O148        O  0.08525179  0.39877672  0.87753839    -0.74700
Ni149      Ni  0.14131827  0.43133978  0.88389581     1.25400
Ni150      Ni  0.12394153  0.38385535  0.87551258     1.25400
C151        C  0.07985889  0.42536277  0.88200045     0.87500
C152        C  0.18504220  0.38888275  0.87723913     0.87500
C153        C  0.13313648  0.42208570  0.84393498     0.87500
C154        C  0.13203462  0.39386888  0.91558255     0.87700
O155        O  0.79243553  0.48637063  0.88723388    -0.74700
O156        O  0.71365671  0.51634588  0.88577048    -0.74700
O157        O  0.75031625  0.49155203  0.85961538    -0.74700
O158        O  0.75529687  0.51056276  0.91338194    -0.74800
O159        O  0.77213052  0.55493060  0.90629672    -0.74700
O160        O  0.76792888  0.53536136  0.85184347    -0.74700
O161        O  0.73121958  0.56018767  0.87796147    -0.74700
O162        O  0.80910807  0.53075251  0.87996053    -0.74700
Ni163      Ni  0.75235038  0.49965017  0.88676003     1.25400
Ni164      Ni  0.77070352  0.54687727  0.87875753     1.25400
C165        C  0.81380902  0.50379186  0.88381039     0.87500
C166        C  0.70956294  0.54336224  0.88153497     0.87500
C167        C  0.75828325  0.51008866  0.84678787     0.87500
C168        C  0.76421904  0.53577649  0.91884888     0.87700
O169        O  0.79373699  0.44210475  0.62953003    -0.74700
O170        O  0.71374357  0.41607471  0.63353316    -0.74700
O171        O  0.75303420  0.44114770  0.65810624    -0.74700
O172        O  0.75433756  0.41789840  0.60497789    -0.74800
O173        O  0.76979848  0.37344765  0.61325863    -0.74700
O174        O  0.76883053  0.39709792  0.66702317    -0.74700
O175        O  0.72998814  0.37214504  0.64246433    -0.74700
O176        O  0.80875572  0.39759554  0.63807607    -0.74700
Ni177      Ni  0.75314458  0.43088289  0.63124146     1.25400
Ni178      Ni  0.76985374  0.38350683  0.64050380     1.25400
C179        C  0.81444785  0.42390121  0.63312498     0.87500
C180        C  0.70884882  0.38959639  0.63877263     0.87500
C181        C  0.76077477  0.42321262  0.67139456     0.87500
C182        C  0.76241835  0.39207594  0.60020623     0.87700
O183        O  0.10082255  0.48457155  0.62735355    -0.74700
O184        O  0.17980992  0.51325207  0.62942553    -0.74700
O185        O  0.14231883  0.48806891  0.65516531    -0.74700
O186        O  0.13831415  0.50914499  0.60170807    -0.74800
O187        O  0.12164802  0.55338252  0.60949815    -0.74700
O188        O  0.12552656  0.53201166  0.66350045    -0.74700
O189        O  0.16283221  0.55715001  0.63778185    -0.74700
O190        O  0.08456725  0.52890326  0.63530622    -0.74700
Ni191      Ni  0.14093773  0.49721036  0.62814942     1.25400
Ni192      Ni  0.12311884  0.54444609  0.63682669     1.25400
C193        C  0.07965112  0.50216303  0.63096698     0.87500
C194        C  0.18424043  0.54015193  0.63378498     0.87500
C195        C  0.13408233  0.50619762  0.66819262     0.87500
C196        C  0.12929324  0.53454990  0.59667632     0.87700
O197        O  0.79277232  0.44133327  0.38861406    -0.74700
O198        O  0.71379789  0.41227071  0.38606977    -0.74700
O199        O  0.75507855  0.41686420  0.41412338    -0.74700
O200        O  0.75142823  0.43737438  0.36051740    -0.74800
O201        O  0.76860326  0.39347207  0.35243950    -0.74700
O202        O  0.77208422  0.37268774  0.40655453    -0.74700
O203        O  0.73126869  0.36841688  0.37813942    -0.74700
O204        O  0.80926730  0.39704717  0.38079185    -0.74700
Ni205      Ni  0.75264275  0.42852663  0.38759131     1.25400
Ni206      Ni  0.77083915  0.38134247  0.37918954     1.25400
C207        C  0.81406446  0.42378051  0.38517408     0.87500
C208        C  0.70962502  0.38528710  0.38178120     0.87500
C209        C  0.76431154  0.39159093  0.41929778     0.87500
C210        C  0.75971439  0.41910431  0.34758715     0.87700
O211        O  0.09956299  0.48651407  0.38552774    -0.74700
O212        O  0.17870789  0.51474770  0.38124346    -0.74700
O213        O  0.13884822  0.51052774  0.41007695    -0.74700
O214        O  0.13924809  0.48979386  0.35652755    -0.74800
O215        O  0.12233510  0.53387742  0.34862509    -0.74700
O216        O  0.12184510  0.55483375  0.40281143    -0.74700
O217        O  0.16124310  0.55870314  0.37347619    -0.74700
O218        O  0.08319870  0.53091370  0.37782593    -0.74700
Ni219      Ni  0.13976132  0.49883468  0.38356994     1.25400
Ni220      Ni  0.12165685  0.54616722  0.37540107     1.25400
C221        C  0.07832357  0.50430767  0.38246051     0.87500
C222        C  0.18288042  0.54168192  0.37681086     0.87500
C223        C  0.12983907  0.53577185  0.41541802     0.87500
C224        C  0.13032102  0.50797383  0.34371685     0.87700
C225        C  0.84472175  0.43401099  0.38626669    -0.03600
C226        C  0.85154251  0.46281174  0.39179517    -0.09300
C227        C  0.88073152  0.47190341  0.39287726    -0.17000
C228        C  0.90333915  0.45232789  0.38845973     0.25100
C229        C  0.89671121  0.42371858  0.38292551    -0.18700
C230        C  0.86767719  0.41460329  0.38184543    -0.07600
C231        C  0.93338816  0.46147002  0.38921591    -0.14000
C232        C  0.95877991  0.46843838  0.38904960    -0.13800
C233        C  0.98888487  0.47724056  0.38779330     0.25000
C234        C  0.01135759  0.45828183  0.39354554    -0.19200
C235        C  0.04061747  0.46686119  0.39177883    -0.07600
C236        C  0.04762438  0.49454770  0.38426490    -0.03700
C237        C  0.02480962  0.51339178  0.37859799    -0.09000
C238        C  0.99571111  0.50476454  0.38032378    -0.16700
H239        H  0.83439534  0.47824081  0.39529699     0.11500
H240        H  0.88565711  0.49417022  0.39711923     0.10800
H241        H  0.91400755  0.40843472  0.37940269     0.10700
H242        H  0.86325370  0.39227988  0.37751547     0.11200
H243        H  0.00627126  0.43686093  0.39931851     0.11300
H244        H  0.05766884  0.45194827  0.39633671     0.11300
H245        H  0.02940372  0.53485004  0.37272198     0.11400
H246        H  0.97852310  0.51954894  0.37575652     0.10200
C247        C  0.12773405  0.54163616  0.57571808    -0.03600
C248        C  0.14243999  0.52376285  0.56231481    -0.09300
C249        C  0.14029152  0.52910547  0.54248051    -0.17000
C250        C  0.12331674  0.55231455  0.53556300     0.25100
C251        C  0.10878193  0.57053904  0.54875512    -0.18700
C252        C  0.11107419  0.56531877  0.56874126    -0.07600
C253        C  0.12080766  0.55653502  0.51488757    -0.14000
C254        C  0.12079653  0.55644231  0.49738206    -0.13800
C255        C  0.12317536  0.55213657  0.47671014     0.25000
C256        C  0.11241195  0.57281332  0.46350898    -0.19200
C257        C  0.11494524  0.56792964  0.44350951    -0.07600
C258        C  0.12822168  0.54224132  0.43648519    -0.03700
C259        C  0.13906614  0.52177539  0.44992413    -0.09000
C260        C  0.13656500  0.52670275  0.46979177    -0.16700
H261        H  0.15559765  0.50546284  0.56715229     0.11500
H262        H  0.15170338  0.51487065  0.53248716     0.10800
H263        H  0.09552282  0.58857388  0.54361216     0.10700
H264        H  0.09940183  0.57939297  0.57867658     0.11200
H265        H  0.10197325  0.59260503  0.46865172     0.11300
H266        H  0.10621651  0.58403038  0.43358004     0.11300
H267        H  0.14938502  0.50174304  0.44510734     0.11400
H268        H  0.14501367  0.51052752  0.47979660     0.10200
C269        C  0.76349054  0.38441190  0.57926243    -0.03600
C270        C  0.77479504  0.35749540  0.57272358    -0.09300
C271        C  0.77690039  0.35155954  0.55280105    -0.17000
C272        C  0.76766658  0.37241190  0.53920168     0.25100
C273        C  0.75597251  0.39892685  0.54565614    -0.18700
C274        C  0.75389526  0.40488406  0.56541739    -0.07600
C275        C  0.77033024  0.36753028  0.51858121    -0.14000
C276        C  0.77095373  0.36778482  0.50106997    -0.13800
C277        C  0.76950446  0.37297008  0.48042750     0.25000
C278        C  0.75652176  0.39877240  0.47374053    -0.19200
C279        C  0.75480347  0.40459069  0.45393591    -0.07600
C280        C  0.76601286  0.38465452  0.44031067    -0.03700
C281        C  0.77905529  0.35866772  0.44709021    -0.09000
C282        C  0.78082862  0.35289817  0.46703490    -0.16700
H283        H  0.78238106  0.34126314  0.58296209     0.11500
H284        H  0.78596462  0.33089884  0.54803277     0.10800
H285        H  0.74867983  0.41524109  0.53535589     0.10700
H286        H  0.74498994  0.42579322  0.56982602     0.11200
H287        H  0.74769752  0.41452176  0.48388985     0.11300
H288        H  0.74462098  0.42480385  0.44931310     0.11300
H289        H  0.78802572  0.34293077  0.43701485     0.11400
H290        H  0.79102077  0.33286050  0.47198198     0.10200
C291        C  0.84546969  0.43285325  0.63168755    -0.03600
C292        C  0.85334160  0.46113162  0.62566379    -0.09300
C293        C  0.88284407  0.46910534  0.62454293    -0.17000
C294        C  0.90472292  0.44893371  0.62941901     0.25100
C295        C  0.89706594  0.42078605  0.63535640    -0.18700
C296        C  0.86771169  0.41277719  0.63646871    -0.07600
C297        C  0.93504952  0.45708653  0.62869532    -0.14000
C298        C  0.96049681  0.46384090  0.62861704    -0.13800
C299        C  0.99051811  0.47309157  0.62902219     0.25000
C300        C  0.01325163  0.45273710  0.62717913    -0.19200
C301        C  0.04238951  0.46205855  0.62771652    -0.07600
C302        C  0.04902803  0.49185546  0.63018300    -0.03700
C303        C  0.02596336  0.51204692  0.63205040    -0.09000
C304        C  0.99696740  0.50271425  0.63145108    -0.16700
H305        H  0.83677048  0.47704043  0.62186728     0.11500
H306        H  0.88858323  0.49101104  0.61995424     0.10800
H307        H  0.91379044  0.40503858  0.63920610     0.10700
H308        H  0.86247727  0.39081367  0.64117433     0.11200
H309        H  0.00846347  0.42970361  0.62535380     0.11300
H310        H  0.05964695  0.44599716  0.62631425     0.11300
H311        H  0.03028068  0.53515381  0.63393979     0.11400
H312        H  0.97955612  0.51862951  0.63291741     0.10200
C313        C  0.75649293  0.50163256  0.82598419    -0.03600
C314        C  0.77023203  0.51828535  0.81149684    -0.09300
C315        C  0.76992600  0.50890515  0.79213998    -0.17000
C316        C  0.75574950  0.48286598  0.78692234     0.25100
C317        C  0.74131550  0.46666484  0.80117758    -0.18700
C318        C  0.74170728  0.47590123  0.82049719    -0.07600
C319        C  0.75659983  0.47230476  0.76712496    -0.14000
C320        C  0.75752363  0.46314969  0.75066493    -0.13800
C321        C  0.75855639  0.45283153  0.73081565     0.25000
C322        C  0.75185846  0.47196408  0.71564318    -0.19200
C323        C  0.75268479  0.46227765  0.69643447    -0.07600
C324        C  0.76025973  0.43317364  0.69194644    -0.03700
C325        C  0.76711747  0.41405405  0.70726634    -0.09000
C326        C  0.76623403  0.42381927  0.72653698    -0.16700
H327        H  0.78176406  0.53817866  0.81517653     0.11500
H328        H  0.78112615  0.52176488  0.78128450     0.10800
H329        H  0.73010787  0.44660260  0.79741792     0.10700
H330        H  0.73065628  0.46264134  0.83119773     0.11200
H331        H  0.74593767  0.49444434  0.71865414     0.11300
H332        H  0.74734412  0.47768906  0.68507230     0.11300
H333        H  0.77304867  0.39156126  0.70437771     0.11400
H334        H  0.77151476  0.40871476  0.73809736     0.10200
C335        C  0.13276890  0.43122198  0.82325084    -0.03600
C336        C  0.13885711  0.46041651  0.81815351    -0.09300
C337        C  0.13816479  0.46937709  0.79879465    -0.17000
C338        C  0.13145153  0.44937978  0.78412419     0.25100
C339        C  0.12538953  0.42025133  0.78901361    -0.18700
C340        C  0.12598936  0.41123096  0.80841952    -0.07600
C341        C  0.13103081  0.45885777  0.76412935    -0.14000
C342        C  0.13119324  0.46731911  0.74752663    -0.13800
C343        C  0.13198423  0.47733063  0.72765313     0.25000
C344        C  0.13962704  0.45792241  0.71284400    -0.19200
C345        C  0.14062380  0.46746394  0.69361702    -0.07600
C346        C  0.13392013  0.49665381  0.68879128    -0.03700
C347        C  0.12626576  0.51606211  0.70376355    -0.09000
C348        C  0.12535964  0.50645960  0.72303817    -0.16700
H349        H  0.14404195  0.47646425  0.82915019     0.11500
H350        H  0.14289379  0.49195695  0.79527361     0.10800
H351        H  0.12019000  0.40449344  0.77782808     0.10700
H352        H  0.12118070  0.38863614  0.81179903     0.11200
H353        H  0.14480176  0.43535272  0.71614837     0.11300
H354        H  0.14644130  0.45183518  0.68249801     0.11300
H355        H  0.12090174  0.53861297  0.70058914     0.11400
H356        H  0.11943578  0.52176257  0.73434039     0.10200
C357        C  0.04886380  0.43480952  0.88288552    -0.03600
C358        C  0.02693358  0.41639827  0.87538739    -0.09300
C359        C  0.99752476  0.42435331  0.87640173    -0.17000
C360        C  0.98941015  0.45079189  0.88497854     0.25100
C361        C  0.01101617  0.46946007  0.89238148    -0.18700
C362        C  0.04062157  0.46157039  0.89130200    -0.07600
C363        C  0.95890697  0.45867226  0.88588369    -0.14000
C364        C  0.93330190  0.46510616  0.88597056    -0.13800
C365        C  0.90312852  0.47423559  0.88536266     0.25000
C366        C  0.89631625  0.50252306  0.87918651    -0.19200
C367        C  0.86729289  0.51191481  0.87863733    -0.07600
C368        C  0.84445204  0.49312619  0.88422498    -0.03700
C369        C  0.85140376  0.46455577  0.89025257    -0.09000
C370        C  0.88060742  0.45519331  0.89083514    -0.16700
H371        H  0.03247645  0.39572922  0.86866736     0.11500
H372        H  0.98109286  0.40981503  0.87051210     0.10800
H373        H  0.00498142  0.49007153  0.89900350     0.10700
H374        H  0.05695068  0.47617278  0.89720980     0.11200
H375        H  0.91348899  0.51741116  0.87484038     0.11300
H376        H  0.86278326  0.53400624  0.87382335     0.11300
H377        H  0.83436357  0.44957681  0.89463081     0.11400
H378        H  0.88561264  0.43317756  0.89559831     0.10200
C379        C  0.76178504  0.49675753  0.19307266    -0.03600
C380        C  0.76904860  0.51613208  0.20815780    -0.09300
C381        C  0.76933516  0.50649730  0.22746083    -0.17000
C382        C  0.76247566  0.47737732  0.23196212     0.25100
C383        C  0.75527047  0.45803929  0.21703029    -0.18700
C384        C  0.75489321  0.46759385  0.19781216    -0.07600
C385        C  0.76257958  0.46716424  0.25180653    -0.14000
C386        C  0.76210300  0.45804040  0.26825671    -0.13800
C387        C  0.76094625  0.44762383  0.28803818     0.25000
C388        C  0.77293963  0.42044213  0.29313327    -0.19200
C389        C  0.77214164  0.41078684  0.31240960    -0.07600
C390        C  0.75939433  0.42825357  0.32690597    -0.03700
C391        C  0.74711762  0.45534485  0.32155972    -0.09000
C392        C  0.74786577  0.46488111  0.30233051    -0.16700
H393        H  0.77447971  0.53867508  0.20505509     0.11500
H394        H  0.77492218  0.52175663  0.23886275     0.10800
H395        H  0.74991760  0.43548925  0.22023584     0.10700
H396        H  0.74930482  0.45198057  0.18662989     0.11200
H397        H  0.78310039  0.40679436  0.28223682     0.11300
H398        H  0.78186278  0.38989227  0.31599946     0.11300
H399        H  0.73706033  0.46936409  0.33228420     0.11400
H400        H  0.73840825  0.48587946  0.29864078     0.10200
C401        C  0.76503893  0.54227551  0.93999038    -0.03600
C402        C  0.75453464  0.52136647  0.95322084    -0.09300
C403        C  0.75522072  0.52665121  0.97311927    -0.17000
C404        C  0.76642330  0.55291163  0.98034778     0.25100
C405        C  0.77680644  0.57408147  0.96736222    -0.18700
C406        C  0.77608434  0.56883259  0.94730081    -0.07600
C407        C  0.76747172  0.55725045  0.00111454    -0.14000
C408        C  0.76733103  0.55695911  0.01864682    -0.13800
C409        C  0.76613233  0.55208194  0.03935365     0.25000
C410        C  0.77320523  0.57419903  0.05263332    -0.19200
C411        C  0.77232178  0.56862465  0.07263714    -0.07600
C412        C  0.76430697  0.54083120  0.07961309    -0.03700
C413        C  0.75706763  0.51892809  0.06609864    -0.09000
C414        C  0.75800336  0.52450845  0.04623532    -0.16700
H415        H  0.74575846  0.50072315  0.94822005     0.11500
H416        H  0.74710967  0.51006110  0.98292050     0.10800
H417        H  0.78557132  0.59452722  0.97272105     0.10700
H418        H  0.78429912  0.58541459  0.93755843     0.11200
H419        H  0.77952225  0.59567898  0.04754475     0.11300
H420        H  0.77797342  0.58597917  0.08260509     0.11300
H421        H  0.75080633  0.49726321  0.07084486     0.11400
H422        H  0.75247712  0.50717031  0.03620158     0.10200
C423        C  0.12876857  0.49829993  0.32315075    -0.03600
C424        C  0.13432404  0.46885991  0.31837560    -0.09300
C425        C  0.13248991  0.45916281  0.29922064    -0.17000
C426        C  0.12513691  0.47862830  0.28438536     0.25100
C427        C  0.11942374  0.50799504  0.28893825    -0.18700
C428        C  0.12114577  0.51776861  0.30818324    -0.07600
C429        C  0.12422642  0.46836265  0.26455363    -0.14000
C430        C  0.12469404  0.45911974  0.24812650    -0.13800
C431        C  0.12664780  0.44858885  0.22839050     0.25000
C432        C  0.11634402  0.42072670  0.22330845    -0.19200
C433        C  0.11849949  0.41076291  0.20413103    -0.07600
C434        C  0.13098976  0.42857477  0.18973949    -0.03700
C435        C  0.14143999  0.45641216  0.19507822    -0.09000
C436        C  0.13929621  0.46626806  0.21418295    -0.16700
H437        H  0.14001635  0.45315349  0.32948463     0.11500
H438        H  0.13696326  0.43642198  0.29597441     0.10800
H439        H  0.11374167  0.52336241  0.27761666     0.10700
H440        H  0.11661288  0.54050713  0.31132632     0.11200
H441        H  0.10656389  0.40673039  0.23414914     0.11300
H442        H  0.11013566  0.38930829  0.20054365     0.11300
H443        H  0.15117931  0.47077540  0.18444002     0.11400
H444        H  0.14746556  0.48778741  0.21785777     0.10200
C445        C  0.13136743  0.38539337  0.07615267    -0.03600
C446        C  0.12142275  0.35841556  0.06883501    -0.09300
C447        C  0.12030418  0.35341318  0.04876275    -0.17000
C448        C  0.12911785  0.37528479  0.03578186     0.25100
C449        C  0.13914926  0.40201077  0.04300890    -0.18700
C450        C  0.14028284  0.40702938  0.06292180    -0.07600
C451        C  0.12796101  0.37102530  0.01502778    -0.14000
C452        C  0.12827167  0.37114866  0.99750582    -0.13800
C453        C  0.13007207  0.37541634  0.97677573     0.25000
C454        C  0.14651523  0.39875983  0.96955019    -0.19200
C455        C  0.14740214  0.40434864  0.94967971    -0.07600
C456        C  0.13194664  0.38658582  0.93655650    -0.03700
C457        C  0.11596982  0.36271376  0.94383474    -0.09000
C458        C  0.11492921  0.35726610  0.96383309    -0.16700
H459        H  0.11435180  0.34131728  0.07858036     0.11500
H460        H  0.11247735  0.33259358  0.04339308     0.10800
H461        H  0.14603961  0.41913774  0.03320139     0.12300
H462        H  0.14805025  0.42807080  0.06792988     0.11200
H463        H  0.15837799  0.41296701  0.97933253     0.11300
H464        H  0.16010831  0.42276621  0.94459931     0.11300
H465        H  0.10378544  0.34868643  0.93413215     0.11400
H466        H  0.10205207  0.33914660  0.96919698     0.10200
C467        C  0.04930694  0.43314294  0.12944565    -0.03600
C468        C  0.04231245  0.46236828  0.12507099    -0.09300
C469        C  0.01307894  0.47150051  0.12456924    -0.17000
C470        C  0.99061408  0.45153695  0.12841606     0.25100
C471        C  0.99741543  0.42246048  0.13265887    -0.18700
C472        C  0.02648382  0.41330712  0.13315869    -0.07600
C473        C  0.96053080  0.46068890  0.12840727    -0.14000
C474        C  0.93507646  0.46741838  0.12902532    -0.13800
C475        C  0.90484010  0.47578945  0.13040652     0.25000
C476        C  0.88262323  0.45619246  0.12525318    -0.19200
C477        C  0.85324624  0.46460573  0.12665346    -0.07600
C478        C  0.84585761  0.49276802  0.13319841    -0.03700
C479        C  0.86842163  0.51214198  0.13846780    -0.09000
C480        C  0.89763728  0.50369103  0.13709168    -0.16700
H481        H  0.05935941  0.47814124  0.12216674     0.11500
H482        H  0.00801593  0.49412010  0.12130021     0.10800
H483        H  0.98022910  0.40686058  0.13569849     0.10700
H484        H  0.03104461  0.39064856  0.13660178     0.11200
H485        H  0.88800724  0.43445865  0.12011628     0.11300
H486        H  0.83640887  0.44922629  0.12250037     0.11300
H487        H  0.86355035  0.53395784  0.14365338     0.11400
H488        H  0.91461855  0.51896828  0.14120484     0.10200
C489        C  0.67971045  0.37282989  0.38114659    -0.03600
C490        C  0.67590944  0.34346113  0.37565736    -0.09300
C491        C  0.64823021  0.33084453  0.37548789    -0.17000
C492        C  0.62370731  0.34720613  0.38078154     0.25100
C493        C  0.62701882  0.37657124  0.38617548    -0.18700
C494        C  0.65492907  0.38936931  0.38633914    -0.07600
C495        C  0.59568815  0.33284086  0.38070310    -0.14000
C496        C  0.57620238  0.31516357  0.37950634    -0.13800
C497        C  0.55937306  0.28882341  0.37694801     0.25000
C498        C  0.53369254  0.28364186  0.38743125    -0.19200
C499        C  0.52022504  0.25609353  0.38661077    -0.07600
C500        C  0.53268265  0.23344530  0.37555777    -0.03700
C501        C  0.55772228  0.23933391  0.36450240    -0.09000
C502        C  0.57086123  0.26679719  0.36515339    -0.16700
H503        H  0.69439957  0.33002409  0.37156505     0.11500
H504        H  0.64597491  0.30811908  0.37130197     0.10800
H505        H  0.60817274  0.38945810  0.39033212     0.10700
H506        H  0.65714582  0.41200042  0.39067591     0.11200
H507        H  0.52471054  0.30045364  0.39673040     0.11300
H508        H  0.50103308  0.25206845  0.39534424     0.11300
H509        H  0.56768698  0.22238971  0.35575736     0.11400
H510        H  0.59075813  0.27048012  0.35703510     0.10200
C511        C  0.35665438  0.69941853  0.37627364    -0.03600
C512        C  0.33123572  0.69419001  0.36538686    -0.09300
C513        C  0.31755321  0.66697407  0.36597072    -0.17000
C514        C  0.32885456  0.64454104  0.37753155     0.25100
C515        C  0.35453467  0.64925452  0.38815675    -0.18700
C516        C  0.36851269  0.67654081  0.38742854    -0.07600
C517        C  0.31252661  0.61770094  0.37908217    -0.14000
C518        C  0.29409476  0.59883422  0.37897673    -0.13800
C519        C  0.26744298  0.58226236  0.37719399     0.25000
C520        C  0.26376227  0.55502694  0.38618482    -0.19200
C521        C  0.23652484  0.54088934  0.38543264    -0.07600
C522        C  0.21274059  0.55410329  0.37586848    -0.03700
C523        C  0.21708321  0.58097113  0.36642877    -0.09000
C524        C  0.24415382  0.59484064  0.36707066    -0.16700
H525        H  0.32163261  0.71133169  0.35662059     0.11500
H526        H  0.29766357  0.66364582  0.35773763     0.10800
H527        H  0.36337597  0.63213053  0.39727872     0.10700
H528        H  0.38791041  0.68007466  0.39609662     0.11200
H529        H  0.28162475  0.54510517  0.39412305     0.11300
H530        H  0.23377023  0.52028511  0.39290892     0.11300
H531        H  0.19931164  0.59166212  0.35883946     0.11400
H532        H  0.24669953  0.61587516  0.36006067     0.10200
C533        C  0.41801769  0.86394350  0.38443130    -0.03600
C534        C  0.39918784  0.88732686  0.37987673    -0.09300
C535        C  0.40852675  0.91620456  0.38188081    -0.17000
C536        C  0.43676618  0.92220428  0.38848807     0.25100
C537        C  0.45567143  0.89915880  0.39317804    -0.18700
C538        C  0.44636715  0.87015924  0.39116608    -0.07600
C539        C  0.44640193  0.95205370  0.38981810    -0.14000
C540        C  0.45376447  0.97733939  0.38990225    -0.13800
C541        C  0.46248697  0.00749214  0.38885781     0.25000
C542        C  0.49047921  0.01460226  0.38232485    -0.19200
C543        C  0.49883808  0.04383765  0.38068640    -0.07600
C544        C  0.47923869  0.06643953  0.38550736    -0.03700
C545        C  0.45112671  0.05910099  0.39210206    -0.09000
C546        C  0.44282682  0.02976662  0.39377062    -0.16700
H547        H  0.37720662  0.88335265  0.37468512     0.11500
H548        H  0.39376007  0.93386705  0.37815481     0.10800
H549        H  0.47762863  0.90359496  0.39827015     0.10700
H550        H  0.46131811  0.85266636  0.39486729     0.11200
H551        H  0.50579993  0.99754563  0.37838279     0.11300
H552        H  0.52062315  0.04870865  0.37551396     0.11300
H553        H  0.43557987  0.07597650  0.39594949     0.11400
H554        H  0.42103630  0.02446592  0.39877282     0.10200
C555        C  0.54083845  0.22889184  0.63568590    -0.03600
C556        C  0.52320257  0.25410716  0.63459091    -0.09300
C557        C  0.53594083  0.28204874  0.63505274    -0.17000
C558        C  0.56636885  0.28495862  0.63650687     0.25100
C559        C  0.58390206  0.25996319  0.63747867    -0.18700
C560        C  0.57132699  0.23225037  0.63709409    -0.07600
C561        C  0.58048298  0.31311219  0.63721858    -0.14000
C562        C  0.59780362  0.33293528  0.63836241    -0.13800
C563        C  0.62382360  0.35042509  0.64037881     0.25000
C564        C  0.64652576  0.33959530  0.65188001    -0.19200
C565        C  0.67371043  0.35326754  0.65191152    -0.07600
C566        C  0.67872278  0.37816533  0.64047221    -0.03700
C567        C  0.65541546  0.38999559  0.62971184    -0.09000
C568        C  0.62808909  0.37600248  0.62954936    -0.16700
H569        H  0.49968241  0.25223385  0.63350735     0.11500
H570        H  0.52212336  0.30126932  0.63431500     0.10800
H571        H  0.60744469  0.26189326  0.63859336     0.10700
H572        H  0.58563331  0.21339736  0.63785850     0.11200
H573        H  0.64358477  0.31978893  0.66024896     0.11300
H574        H  0.69113474  0.34378491  0.66049531     0.11300
H575        H  0.65871981  0.40909220  0.62073582     0.11400
H576        H  0.61072572  0.38447703  0.62046888     0.10200
C577        C  0.52545822  0.14329909  0.57694735    -0.03600
C578        C  0.50252702  0.14887011  0.56383568    -0.09300
C579        C  0.50739416  0.14861887  0.54388743    -0.17000
C580        C  0.53526043  0.14285257  0.53651429     0.25100
C581        C  0.55830907  0.13704793  0.54938736    -0.18700
C582        C  0.55344442  0.13720145  0.56948081    -0.07600
C583        C  0.53960842  0.14327862  0.51574123    -0.14000
C584        C  0.53969777  0.14464038  0.49822765    -0.13800
C585        C  0.53569441  0.14730789  0.47748480     0.25000
C586        C  0.55594300  0.13553658  0.46438496    -0.19200
C587        C  0.55084025  0.13727465  0.44434751    -0.07600
C588        C  0.52529362  0.15066184  0.43714539    -0.03700
C589        C  0.50542773  0.16282154  0.45045556    -0.09000
C590        C  0.51060780  0.16117605  0.47036944    -0.16700
H591        H  0.48066795  0.15352469  0.56897662     0.11500
H592        H  0.48933147  0.15309416  0.53417358     0.10800
H593        H  0.58002202  0.13253854  0.54391978     0.10700
H594        H  0.57157317  0.13285299  0.57913857     0.11200
H595        H  0.57545238  0.12469644  0.46964249     0.11300
H596        H  0.56653981  0.12761656  0.43453697     0.11300
H597        H  0.48559934  0.17339290  0.44549769     0.11400
H598        H  0.49474473  0.17041198  0.48026433     0.10200
C599        C  0.35899312  0.69472479  0.63337249    -0.03600
C600        C  0.33315576  0.68907031  0.64365562    -0.09300
C601        C  0.31986114  0.66174749  0.64268718    -0.17000
C602        C  0.33196484  0.63953149  0.63135690     0.25100
C603        C  0.35812676  0.64456501  0.62135419    -0.18700
C604        C  0.37173341  0.67205694  0.62245952    -0.07600
C605        C  0.31580030  0.61266798  0.62945047    -0.14000
C606        C  0.29684164  0.59434980  0.62961486    -0.13800
C607        C  0.26963126  0.57883117  0.63166168     0.25000
C608        C  0.26477693  0.55176519  0.62272160    -0.19200
C609        C  0.23720198  0.53846128  0.62391362    -0.07600
C610        C  0.21421302  0.55231937  0.63387960    -0.03700
C611        C  0.21961115  0.57915366  0.64311743    -0.09000
C612        C  0.24707495  0.59220483  0.64205223    -0.16700
H613        H  0.32287280  0.70600031  0.65225139     0.11500
H614        H  0.29961107  0.65816940  0.65044156     0.10800
H615        H  0.36760543  0.62757236  0.61242602     0.10700
H616        H  0.39150450  0.67590555  0.61427668     0.11200
H617        H  0.28203474  0.54126861  0.61455358     0.11300
H618        H  0.23360852  0.51787784  0.61655779     0.11300
H619        H  0.20244476  0.59032903  0.65097076     0.11400
H620        H  0.25053828  0.61315585  0.64900547     0.10200
C621        C  0.36667244  0.78345808  0.43599489    -0.03600
C622        C  0.38633070  0.77121491  0.44944209    -0.09300
C623        C  0.38084908  0.77265053  0.46925893    -0.17000
C624        C  0.35563414  0.78634512  0.47618167     0.25100
C625        C  0.33559675  0.79835779  0.46297827    -0.18700
C626        C  0.34104155  0.79687529  0.44296964    -0.07600
C627        C  0.35129750  0.78813029  0.49688478    -0.14000
C628        C  0.35182193  0.78785868  0.51439590    -0.13800
C629        C  0.35688183  0.78564444  0.53502556     0.25000
C630        C  0.33696368  0.79704946  0.54846588    -0.19200
C631        C  0.34270416  0.79500006  0.56840024    -0.07600
C632        C  0.36854157  0.78163329  0.57513522    -0.03700
C633        C  0.38824284  0.77013277  0.56147269    -0.09000
C634        C  0.38243275  0.77209696  0.54166200    -0.16700
H635        H  0.40622989  0.76060161  0.44468159     0.11500
H636        H  0.39652553  0.76323573  0.47924267     0.10800
H637        H  0.31596066  0.80904969  0.46812879     0.10700
H638        H  0.32550693  0.80655169  0.43302934     0.11200
H639        H  0.31710811  0.80763545  0.54355626     0.11300
H640        H  0.32712912  0.80415229  0.57850467     0.11300
H641        H  0.40829310  0.75961426  0.56607371     0.11400
H642        H  0.39803933  0.76315098  0.53147722     0.10200
C643        C  0.47882281  0.06396802  0.63264751    -0.03600
C644        C  0.49788705  0.04097512  0.63767201    -0.09300
C645        C  0.48855584  0.01194936  0.63683773    -0.17000
C646        C  0.46007566  0.00539563  0.63095077     0.25100
C647        C  0.44084843  0.02806109  0.62600369    -0.18700
C648        C  0.45013381  0.05720641  0.62686494    -0.07600
C649        C  0.45072053  0.97538482  0.63009632    -0.14000
C650        C  0.44334087  0.95009079  0.62973078    -0.13800
C651        C  0.43425231  0.91997499  0.62977762     0.25000
C652        C  0.40620385  0.91269397  0.63612395    -0.19200
C653        C  0.39727936  0.88351725  0.63640288    -0.07600
C654        C  0.41634887  0.86111749  0.63037510    -0.03700
C655        C  0.44454246  0.86861546  0.62402162    -0.09000
C656        C  0.45340765  0.89790282  0.62370898    -0.16700
H657        H  0.52009660  0.04536999  0.64224742     0.11500
H658        H  0.50358987  0.99461240  0.64075220     0.10800
H659        H  0.41870923  0.02320629  0.62145098     0.10700
H660        H  0.43496727  0.07437591  0.62289154     0.11200
H661        H  0.39123199  0.92957248  0.64089887     0.11300
H662        H  0.37545091  0.87852464  0.64143765     0.11300
H663        H  0.45969023  0.85190336  0.61926862     0.11400
H664        H  0.47520705  0.90332152  0.61878197     0.10200
C665        C  0.53244876  0.69572016  0.87620002    -0.03600
C666        C  0.52039125  0.67313488  0.88746571    -0.09300
C667        C  0.53413740  0.64569774  0.88831322    -0.17000
C668        C  0.55969567  0.64060733  0.87766503     0.25100
C669        C  0.57089316  0.66262687  0.86578583    -0.18700
C670        C  0.55747934  0.68995528  0.86509643    -0.07600
C671        C  0.57658924  0.61425551  0.87996198    -0.14000
C672        C  0.59603492  0.59646561  0.88074017    -0.13800
C673        C  0.62379265  0.58161484  0.88027448     0.25000
C674        C  0.64759178  0.59613348  0.87204611    -0.19200
C675        C  0.67526653  0.58341282  0.87229224    -0.07600
C676        C  0.67967915  0.55577852  0.88072247    -0.03700
C677        C  0.65556060  0.54093464  0.88865231    -0.09000
C678        C  0.62772736  0.55388592  0.88850290    -0.16700
H679        H  0.50123647  0.67709905  0.89625577     0.11500
H680        H  0.52540768  0.62887460  0.89768729     0.10800
H681        H  0.59070489  0.65900544  0.85755270     0.10700
H682        H  0.56715557  0.70686599  0.85620432     0.11200
H683        H  0.64483537  0.61760186  0.86566307     0.11300
H684        H  0.69328096  0.59537727  0.86595489     0.11300
H685        H  0.65832394  0.51967275  0.89528886     0.11400
H686        H  0.60946275  0.54249548  0.89499228     0.10200
C687        C  0.47926544  0.77876395  0.82297274    -0.03600
C688        C  0.49868042  0.78678379  0.80810854    -0.09300
C689        C  0.48925760  0.78762073  0.78875962    -0.17000
C690        C  0.46030756  0.78052786  0.78395681     0.25100
C691        C  0.44091515  0.77255559  0.79866720    -0.18700
C692        C  0.45026268  0.77165502  0.81795030    -0.07600
C693        C  0.45042175  0.78100349  0.76400869    -0.14000
C694        C  0.44173544  0.78063106  0.74743004    -0.13800
C695        C  0.43181051  0.77934294  0.72750517     0.25000
C696        C  0.40230211  0.78386047  0.72281102    -0.19200
C697        C  0.39287618  0.78240519  0.70348391    -0.07600
C698        C  0.41283104  0.77626297  0.68852814    -0.03700
C699        C  0.44237951  0.77163671  0.69343887    -0.09000
C700        C  0.45174528  0.77321989  0.71270727    -0.16700
H701        H  0.52109778  0.79242579  0.81141954     0.11500
H702        H  0.50457404  0.79378967  0.77754663     0.10800
H703        H  0.41850049  0.76698239  0.79523609     0.10700
H704        H  0.43463176  0.76546882  0.82895850     0.11200
H705        H  0.38656421  0.78856472  0.73408655     0.11300
H706        H  0.37002644  0.78614335  0.70025560     0.11300
H707        H  0.45843128  0.76706400  0.68234178     0.11400
H708        H  0.47460600  0.76967459  0.71605504     0.10200
C709        C  0.35840757  0.23108901  0.87697500    -0.03600
C710        C  0.37262569  0.25542938  0.88516748    -0.09300
C711        C  0.35902254  0.28300974  0.88515455    -0.17000
C712        C  0.33127250  0.28646785  0.87680388     0.25100
C713        C  0.31757754  0.26253002  0.86811676    -0.18700
C714        C  0.33093780  0.23515277  0.86820426    -0.07600
C715        C  0.31534760  0.31365905  0.87785521    -0.14000
C716        C  0.29683596  0.33250717  0.87774460    -0.13800
C717        C  0.27008339  0.34910973  0.87636748     0.25000
C718        C  0.24722324  0.33770935  0.86525778    -0.19200
C719        C  0.21996443  0.35134359  0.86512822    -0.07600
C720        C  0.21503644  0.37681607  0.87604066    -0.03700
C721        C  0.23834984  0.38887882  0.88666605    -0.09000
C722        C  0.26573690  0.37493493  0.88693368    -0.16700
H723        H  0.39376198  0.25297967  0.89202707     0.11500
H724        H  0.36982847  0.30138871  0.89197572     0.10800
H725        H  0.29613501  0.26487704  0.86162162     0.10700
H726        H  0.31942706  0.21700431  0.86162303     0.11200
H727        H  0.25022634  0.31771287  0.85708831     0.11300
H728        H  0.20251227  0.34158612  0.85672593     0.11300
H729        H  0.23508306  0.40833478  0.89531935     0.11400
H730        H  0.28320497  0.38385220  0.89572025     0.10200
C731        C  0.41750408  0.15066651  0.82444324    -0.03600
C732        C  0.44654302  0.15885335  0.82034874    -0.09300
C733        C  0.45734463  0.15785407  0.80143503    -0.17000
C734        C  0.43939258  0.14867632  0.78621097     0.25100
C735        C  0.41046948  0.14043043  0.79009568    -0.18700
C736        C  0.39958943  0.14137712  0.80906356    -0.07600
C737        C  0.45061617  0.14817132  0.76664075    -0.14000
C738        C  0.45988203  0.14841534  0.75024422    -0.13800
C739        C  0.46981035  0.14938883  0.73037762     0.25000
C740        C  0.45259600  0.16319655  0.71634790    -0.19200
C741        C  0.46144975  0.16357550  0.69699417    -0.07600
C742        C  0.48780260  0.15019016  0.69125586    -0.03700
C743        C  0.50530347  0.13680138  0.70549370    -0.09000
C744        C  0.49631522  0.13636011  0.72490867    -0.16700
H745        H  0.46107577  0.16594169  0.83179855     0.11500
H746        H  0.47972994  0.16428746  0.79869345     0.10800
H747        H  0.39629924  0.13327587  0.77845469     0.10700
H748        H  0.37724065  0.13476144  0.81168634     0.11200
H749        H  0.43212339  0.17345112  0.72033332     0.11300
H750        H  0.44744998  0.17419346  0.68647668     0.11300
H751        H  0.52563544  0.12623969  0.70158625     0.11400
H752        H  0.50990590  0.12561792  0.73561267     0.10200
C753        C  0.47681437  0.86227173  0.88373256    -0.03600
C754        C  0.44740939  0.86963239  0.88709136    -0.09300
C755        C  0.43890709  0.89897760  0.88827404    -0.17000
C756        C  0.45969712  0.92119503  0.88619001     0.25100
C757        C  0.48900131  0.91405533  0.88306357    -0.18700
C758        C  0.49752797  0.88482853  0.88183513    -0.07600
C759        C  0.45103606  0.95137443  0.88664550    -0.14000
C760        C  0.44436419  0.97683315  0.88624017    -0.13800
C761        C  0.43609006  0.00706229  0.88491522     0.25000
C762        C  0.45245053  0.02864228  0.89437365    -0.19200
C763        C  0.44409671  0.05802799  0.89309604    -0.07600
C764        C  0.41913759  0.06598540  0.88246498    -0.03700
C765        C  0.40309514  0.04414210  0.87282613    -0.09000
C766        C  0.41157977  0.01490557  0.87400942    -0.16700
H767        H  0.43098744  0.85278043  0.88862148     0.11500
H768        H  0.41611642  0.90433480  0.89065215     0.10800
H769        H  0.50523276  0.93108922  0.88140632     0.10700
H770        H  0.52037603  0.87993707  0.87931974     0.11200
H771        H  0.47154614  0.02273773  0.90280941     0.11300
H772        H  0.45676327  0.07439014  0.90069489     0.11300
H773        H  0.38390678  0.04964144  0.86437704     0.11400
H774        H  0.39891358  0.99840484  0.86652381     0.10200
C775        C  0.53577313  0.69614751  0.13660955    -0.03600
C776        C  0.56017224  0.69122698  0.14853462    -0.09300
C777        C  0.57352911  0.66385909  0.14911348    -0.17000
C778        C  0.56290683  0.64098151  0.13768957     0.25100
C779        C  0.53806110  0.64534057  0.12614857    -0.18700
C780        C  0.52434949  0.67280497  0.12573414    -0.07600
C781        C  0.57951205  0.61425399  0.13689337    -0.14000
C782        C  0.59834677  0.59579144  0.13724613    -0.13800
C783        C  0.62539266  0.57984907  0.13884310     0.25000
C784        C  0.62890909  0.55189336  0.13085008    -0.19200
C785        C  0.65634806  0.53811906  0.13141394    -0.07600
C786        C  0.68046936  0.55238502  0.13982472    -0.03700
C787        C  0.67635029  0.58009882  0.14822632    -0.09000
C788        C  0.64909759  0.59364391  0.14773479    -0.16700
H789        H  0.56925049  0.70873437  0.15721789     0.11500
H790        H  0.59276081  0.66079168  0.15805113     0.10800
H791        H  0.52978291  0.62782373  0.11713115     0.10700
H792        H  0.50562981  0.67610575  0.11639220     0.11200
H793        H  0.61069633  0.54105844  0.12385644     0.11300
H794        H  0.65890257  0.51683870  0.12476825     0.11300
H795        H  0.69437371  0.59165991  0.15491331     0.11400
H796        H  0.64667607  0.61527231  0.15393635     0.10200
C797        C  0.48296516  0.77598596  0.18990148    -0.03600
C798        C  0.45437497  0.76800573  0.19525518    -0.09300
C799        C  0.44564342  0.76876612  0.21461421    -0.17000
C800        C  0.46526840  0.77744624  0.22903138     0.25100
C801        C  0.49391819  0.78509805  0.22393518    -0.18700
C802        C  0.50272860  0.78440444  0.20449989    -0.07600
C803        C  0.45566223  0.77868330  0.24893561    -0.14000
C804        C  0.44662980  0.77938631  0.26536936    -0.13800
C805        C  0.43584663  0.77969503  0.28502776     0.25000
C806        C  0.45435574  0.77165992  0.30023855    -0.19200
C807        C  0.44410585  0.77167799  0.31928373    -0.07600
C808        C  0.41507959  0.77978146  0.32352973    -0.03700
C809        C  0.39656679  0.78786902  0.30815309    -0.09000
C810        C  0.40689663  0.78777836  0.28903923    -0.16700
H811        H  0.43853460  0.76144622  0.18444219     0.11500
H812        H  0.42345353  0.76276168  0.21831992     0.10800
H813        H  0.50937822  0.79180822  0.23495473     0.10700
H814        H  0.52486460  0.79066016  0.20090049     0.11200
H815        H  0.47676138  0.76535149  0.29738710     0.11300
H816        H  0.45905604  0.76540653  0.33071553     0.11300
H817        H  0.37416207  0.79424193  0.31088231     0.11400
H818        H  0.39229887  0.79401679  0.27739348     0.10200
C819        C  0.52231240  0.78208929  0.07595670    -0.03600
C820        C  0.50026172  0.77454673  0.06262590    -0.09300
C821        C  0.50531160  0.77601784  0.04272554    -0.17000
C822        C  0.53247133  0.78503157  0.03565526     0.25100
C823        C  0.55465008  0.79264957  0.04874569    -0.18700
C824        C  0.54961572  0.79121686  0.06877687    -0.07600
C825        C  0.53704216  0.78613453  0.01495228    -0.14000
C826        C  0.53741141  0.78568154  0.99744378    -0.13800
C827        C  0.53356489  0.78342944  0.97670932     0.25000
C828        C  0.55318822  0.79648146  0.96374482    -0.19200
C829        C  0.54827311  0.79474354  0.94369249    -0.07600
C830        C  0.52353469  0.78009391  0.93640231    -0.03700
C831        C  0.50427034  0.76678853  0.94958849    -0.09000
C832        C  0.50927566  0.76841712  0.96949039    -0.16700
H833        H  0.47894940  0.76749536  0.06754952     0.11500
H834        H  0.48794376  0.77006658  0.03281667     0.10800
H835        H  0.57579987  0.79966853  0.04349001     0.10700
H836        H  0.56703764  0.79721385  0.07860850     0.11200
H837        H  0.57207100  0.80822472  0.96911808     0.11300
H838        H  0.56344750  0.80531270  0.93394952     0.11300
H839        H  0.48508759  0.75521236  0.94453805     0.11400
H840        H  0.49392649  0.75818833  0.97929714     0.10200
C841        C  0.35804306  0.23048934  0.13724351    -0.03600
C842        C  0.33085760  0.23492863  0.14624833    -0.09300
C843        C  0.31803483  0.26252496  0.14659267    -0.17000
C844        C  0.33200887  0.28628503  0.13793552     0.25100
C845        C  0.35951731  0.28245794  0.12937783    -0.18700
C846        C  0.37259607  0.25464514  0.12911844    -0.07600
C847        C  0.31640504  0.31360572  0.13696939    -0.14000
C848        C  0.29769513  0.33220893  0.13706460    -0.13800
C849        C  0.27052127  0.34804301  0.13818680     0.25000
C850        C  0.26601764  0.37411617  0.12795756    -0.19200
C851        C  0.23830141  0.38729976  0.12782096    -0.07600
C852        C  0.21482051  0.37423017  0.13768940    -0.03700
C853        C  0.21984595  0.34846833  0.14826974    -0.09000
C854        C  0.24746229  0.33557758  0.14855460    -0.16700
H855        H  0.31912882  0.21690394  0.15278451     0.11500
H856        H  0.29674713  0.26517694  0.15321511     0.10800
H857        H  0.37048800  0.30071314  0.12255108     0.10700
H858        H  0.39352011  0.25186497  0.12207395     0.11200
H859        H  0.28365125  0.38382889  0.11973859     0.11300
H860        H  0.23498015  0.40704480  0.11946649     0.11300
H861        H  0.20226500  0.33797477  0.15610910     0.11400
H862        H  0.25062709  0.31535019  0.15644463     0.10200
C863        C  0.41339571  0.14745171  0.18930671    -0.03600
C864        C  0.44175736  0.15698607  0.19421007    -0.09300
C865        C  0.45191357  0.15542156  0.21331589    -0.17000
C866        C  0.43400888  0.14426976  0.22796140     0.25100
C867        C  0.40571104  0.13478675  0.22326707    -0.18700
C868        C  0.39546556  0.13635697  0.20411794    -0.07600
C869        C  0.44459643  0.14300495  0.24776498    -0.14000
C870        C  0.45331899  0.14278421  0.26435273    -0.13800
C871        C  0.46278616  0.14370357  0.28440883     0.25000
C872        C  0.44336224  0.15306471  0.29876536    -0.19200
C873        C  0.45234764  0.15472577  0.31811512    -0.07600
C874        C  0.48104009  0.14706636  0.32356693    -0.03700
C875        C  0.50043049  0.13744996  0.30907712    -0.09000
C876        C  0.49136469  0.13581072  0.28966816    -0.16700
H877        H  0.45625808  0.16560366  0.18324177     0.11500
H878        H  0.47378896  0.16291671  0.21665157     0.10800
H879        H  0.39153158  0.12613952  0.23441981     0.10700
H880        H  0.37362215  0.12870227  0.20089716     0.11200
H881        H  0.42121389  0.15923069  0.29499273     0.11300
H882        H  0.43673077  0.16208105  0.32882416     0.11300
H883        H  0.52259085  0.13123296  0.31272141     0.11400
H884        H  0.50669671  0.12849616  0.27876199     0.10200
C885        C  0.36835436  0.14315558  0.93673503    -0.03600
C886        C  0.34001705  0.13645561  0.94332978    -0.09300
C887        C  0.33413275  0.13462827  0.96329072    -0.17000
C888        C  0.35651928  0.13929664  0.97687320     0.25100
C889        C  0.38473690  0.14550163  0.97033332    -0.18700
C890        C  0.39059818  0.14744200  0.95055852    -0.07600
C891        C  0.35122730  0.13835044  0.99755744    -0.14000
C892        C  0.35105369  0.13890067  0.01510076    -0.13800
C893        C  0.35582478  0.14087081  0.03582401     0.25000
C894        C  0.38383051  0.14752117  0.04265015    -0.19200
C895        C  0.38931847  0.14951441  0.06249764    -0.07600
C896        C  0.36690805  0.14480618  0.07609953    -0.03700
C897        C  0.33868835  0.13816889  0.06919025    -0.09000
C898        C  0.33318708  0.13627934  0.04917625    -0.16700
H899        H  0.32242811  0.13291851  0.93311301     0.11500
H900        H  0.31215858  0.12975201  0.96810429     0.10800
H901        H  0.40231574  0.14906762  0.98058176     0.10700
H902        H  0.41274044  0.15235586  0.94611932     0.11200
H903        H  0.40158342  0.15112756  0.03257826     0.11300
H904        H  0.41134298  0.15454272  0.06717225     0.11300
H905        H  0.32093808  0.13442582  0.07921766     0.11400
H906        H  0.31135871  0.13115747  0.04414512     0.10200
C907        C  0.41468204  0.06418635  0.13030841    -0.03600
C908        C  0.44096464  0.05590102  0.12135207    -0.09300
C909        C  0.44935885  0.02645944  0.12092442    -0.17000
C910        C  0.43166900  0.00515237  0.12954185     0.25100
C911        C  0.40559419  0.01327341  0.13853911    -0.18700
C912        C  0.39709826  0.04254176  0.13887999    -0.07600
C913        C  0.44023057  0.97493933  0.12942627    -0.14000
C914        C  0.44708111  0.94952994  0.12987005    -0.13800
C915        C  0.45606090  0.91946831  0.13078690     0.25000
C916        C  0.43772572  0.89725668  0.12392429    -0.19200
C917        C  0.44697651  0.86808875  0.12447915    -0.07600
C918        C  0.47475344  0.86094626  0.13181631    -0.03700
C919        C  0.49278892  0.88344473  0.13891905    -0.09000
C920        C  0.48346393  0.91247085  0.13843021    -0.16700
H921        H  0.45485149  0.07208287  0.11459472     0.11500
H922        H  0.46963407  0.02032644  0.11392719     0.10800
H923        H  0.39183277  0.99698088  0.14531874     0.10700
H924        H  0.37682075  0.04823560  0.14601946     0.11200
H925        H  0.41639860  0.90250063  0.11802817     0.11300
H926        H  0.43261994  0.85124148  0.11894964     0.11300
H927        H  0.51419253  0.87865140  0.14484174     0.11400
H928        H  0.49773074  0.92948103  0.14387629     0.10200
loop_ 
_geom_bond_atom_site_label_1 
_geom_bond_atom_site_label_2 
_geom_bond_distance 
_geom_bond_site_symmetry_2 
_ccdc_geom_bond_type 
O1           Ni9   1.929       .  S
O1           C11   1.284       .  A
O2           Ni9   1.933       .  S
O2           C12   1.284       .  A
O3           Ni9   1.916       .  S
O3           C13   1.281       .  A
O4           Ni9   1.912       .  S
O4           C14   1.280       .  A
O5          Ni10   1.943       .  S
O5           C14   1.287       .  A
O6          Ni10   1.939       .  S
O6           C13   1.286       .  A
O7          Ni10   1.901       .  S
O7           C12   1.279       .  A
O8          Ni10   1.899       .  S
O8           C11   1.278       .  A
Ni9         Ni10   2.384       .  S
C11         C907   1.477       .  S
C12         C841   1.481       .  S
C13         C863   1.494       .  S
C14         C896   1.494       .  S
O15         Ni23   1.926       .  S
O15          C25   1.284       .  A
O16         Ni23   1.928       .  S
O16          C26   1.283       .  A
O17         Ni23   1.913       .  S
O17          C27   1.281       .  A
O18         Ni23   1.911       .  S
O18          C28   1.280       .  A
O19         Ni24   1.937       .  S
O19          C28   1.286       .  A
O20         Ni24   1.931       .  S
O20          C27   1.285       .  A
O21         Ni24   1.904       .  S
O21          C26   1.279       .  A
O22         Ni24   1.903       .  S
O22          C25   1.279       .  A
Ni23        Ni24   2.386       .  S
C25         C918   1.478       .  S
C26         C775   1.476       .  S
C27         C797   1.487       .  S
C28         C819   1.490       .  S
O29         Ni37   1.929       .  S
O29          C39   1.284       .  A
O30         Ni37   1.934       .  S
O30          C40   1.285       .  A
O31         Ni37   1.908       .  S
O31          C41   1.280       .  A
O32         Ni37   1.912       .  S
O32          C42   1.280       .  A
O33         Ni38   1.937       .  S
O33          C42   1.286       .  A
O34         Ni38   1.943       .  S
O34          C41   1.287       .  A
O35         Ni38   1.904       .  S
O35          C40   1.279       .  A
O36         Ni38   1.900       .  S
O36          C39   1.278       .  A
Ni37        Ni38   2.385       .  S
C39         C764   1.476       .  S
C40         C709   1.484       .  S
C41         C885   1.492       .  S
C42         C731   1.490       .  S
O43         Ni51   1.926       .  S
O43          C53   1.284       .  A
O44         Ni51   1.928       .  S
O44          C54   1.283       .  A
O45         Ni51   1.910       .  S
O45          C55   1.280       .  A
O46         Ni51   1.916       .  S
O46          C56   1.281       .  A
O47         Ni52   1.936       .  S
O47          C56   1.286       .  A
O48         Ni52   1.937       .  S
O48          C55   1.285       .  A
O49         Ni52   1.906       .  S
O49          C54   1.280       .  A
O50         Ni52   1.903       .  S
O50          C53   1.279       .  A
Ni51        Ni52   2.385       .  S
C53         C753   1.479       .  S
C54         C665   1.477       .  S
C55         C830   1.488       .  S
C56         C687   1.492       .  S
O57         Ni65   1.927       .  S
O57          C67   1.284       .  A
O58         Ni65   1.931       .  S
O58          C68   1.283       .  A
O59         Ni65   1.914       .  S
O59          C69   1.281       .  A
O60         Ni65   1.919       .  S
O60          C70   1.282       .  A
O61         Ni66   1.934       .  S
O61          C70   1.285       .  A
O62         Ni66   1.935       .  S
O62          C69   1.285       .  A
O63         Ni66   1.906       .  S
O63          C68   1.280       .  A
O64         Ni66   1.905       .  S
O64          C67   1.279       .  A
Ni65        Ni66   2.385       .  S
C67         C654   1.481       .  S
C68         C599   1.480       .  S
C69         C632   1.489       .  S
C70         C698   1.492       .  S
O71         Ni79   1.930       .  S
O71          C81   1.285       .  A
O72         Ni79   1.932       .  S
O72          C82   1.284       .  A
O73         Ni79   1.912       .  S
O73          C83   1.281       .  A
O74         Ni79   1.912       .  S
O74          C84   1.280       .  A
O75         Ni80   1.937       .  S
O75          C84   1.286       .  A
O76         Ni80   1.938       .  S
O76          C83   1.286       .  A
O77         Ni80   1.905       .  S
O77          C82   1.280       .  A
O78         Ni80   1.905       .  S
O78          C81   1.279       .  A
Ni79        Ni80   2.384       .  S
C81         C643   1.482       .  S
C82         C555   1.484       .  S
C83         C577   1.491       .  S
C84         C742   1.489       .  S
O85         Ni93   1.926       .  S
O85          C95   1.284       .  A
O86         Ni93   1.928       .  S
O86          C96   1.283       .  A
O87         Ni93   1.911       .  S
O87          C97   1.280       .  A
O88         Ni93   1.905       .  S
O88          C98   1.279       .  A
O89         Ni94   1.940       .  S
O89          C98   1.286       .  A
O90         Ni94   1.937       .  S
O90          C97   1.286       .  A
O91         Ni94   1.909       .  S
O91          C96   1.280       .  A
O92         Ni94   1.907       .  S
O92          C95   1.279       .  A
Ni93        Ni94   2.385       .  S
C95         C533   1.481       .  S
C96         C511   1.480       .  S
C97         C808   1.489       .  S
C98         C621   1.489       .  S
O99        Ni107   1.925       .  S
O99         C109   1.284       .  A
O100       Ni107   1.928       .  S
O100        C110   1.283       .  A
O101       Ni107   1.921       .  S
O101        C111   1.282       .  A
O102       Ni107   1.916       .  S
O102        C112   1.281       .  A
O103       Ni108   1.938       .  S
O103        C112   1.285       .  A
O104       Ni108   1.934       .  S
O104        C111   1.285       .  A
O105       Ni108   1.909       .  S
O105        C110   1.280       .  A
O106       Ni108   1.906       .  S
O106        C109   1.279       .  A
Ni107      Ni108   2.385       .  S
C109        C544   1.480       .  S
C110        C500   1.479       .  S
C111        C874   1.494       .  S
C112        C588   1.492       .  S
O113       Ni121   1.928       .  S
O113        C123   1.284       .  A
O114       Ni121   1.929       .  S
O114        C124   1.283       .  A
O115       Ni121   1.910       .  S
O115        C125   1.280       .  A
O116       Ni121   1.913       .  S
O116        C126   1.281       .  A
O117       Ni122   1.937       .  S
O117        C126   1.286       .  A
O118       Ni122   1.940       .  S
O118        C125   1.286       .  A
O119       Ni122   1.908       .  S
O119        C124   1.280       .  A
O120       Ni122   1.904       .  S
O120        C123   1.279       .  A
Ni121      Ni122   2.385       .  S
C123        C467   1.481       .  S
C124        C852   1.480       .  S
C125        C445   1.491       .  S
C126        C434   1.491       .  S
O127       Ni135   1.931       .  S
O127        C137   1.285       .  A
O128       Ni135   1.933       .  S
O128        C138   1.285       .  A
O129       Ni135   1.910       .  S
O129        C139   1.280       .  A
O130       Ni135   1.913       .  S
O130        C140   1.280       .  A
O131       Ni136   1.938       .  S
O131        C140   1.286       .  A
O132       Ni136   1.940       .  S
O132        C139   1.286       .  A
O133       Ni136   1.901       .  S
O133        C138   1.278       .  A
O134       Ni136   1.901       .  S
O134        C137   1.278       .  A
Ni135      Ni136   2.384       .  S
C137        C478   1.481       .  S
C138        C786   1.481       .  S
C139        C412   1.491       .  S
C140        C379   1.491       .  S
O141       Ni149   1.936       .  S
O141        C151   1.286       .  A
O142       Ni149   1.935       .  S
O142        C152   1.285       .  A
O143       Ni149   1.918       .  S
O143        C153   1.281       .  A
O144       Ni149   1.913       .  S
O144        C154   1.281       .  A
O145       Ni150   1.937       .  S
O145        C154   1.285       .  A
O146       Ni150   1.932       .  S
O146        C153   1.285       .  A
O147       Ni150   1.904       .  S
O147        C152   1.279       .  A
O148       Ni150   1.902       .  S
O148        C151   1.278       .  A
Ni149      Ni150   2.385       .  S
C151        C357   1.484       .  S
C152        C720   1.481       .  S
C153        C335   1.490       .  S
C154        C456   1.488       .  S
O155       Ni163   1.932       .  S
O155        C165   1.285       .  A
O156       Ni163   1.929       .  S
O156        C166   1.283       .  A
O157       Ni163   1.915       .  S
O157        C167   1.281       .  A
O158       Ni163   1.912       .  S
O158        C168   1.281       .  A
O159       Ni164   1.941       .  S
O159        C168   1.286       .  A
O160       Ni164   1.938       .  S
O160        C167   1.286       .  A
O161       Ni164   1.907       .  S
O161        C166   1.280       .  A
O162       Ni164   1.907       .  S
O162        C165   1.280       .  A
Ni163      Ni164   2.384       .  S
C165        C368   1.484       .  S
C166        C676   1.481       .  S
C167        C313   1.492       .  S
C168        C401   1.492       .  S
O169       Ni177   1.932       .  S
O169        C179   1.285       .  A
O170       Ni177   1.934       .  S
O170        C180   1.284       .  A
O171       Ni177   1.916       .  S
O171        C181   1.281       .  A
O172       Ni177   1.912       .  S
O172        C182   1.281       .  A
O173       Ni178   1.939       .  S
O173        C182   1.286       .  A
O174       Ni178   1.937       .  S
O174        C181   1.286       .  A
O175       Ni178   1.902       .  S
O175        C180   1.279       .  A
O176       Ni178   1.902       .  S
O176        C179   1.278       .  A
Ni177      Ni178   2.384       .  S
C179        C291   1.481       .  S
C180        C566   1.480       .  S
C181        C324   1.493       .  S
C182        C269   1.491       .  S
O183       Ni191   1.926       .  S
O183        C193   1.283       .  A
O184       Ni191   1.927       .  S
O184        C194   1.283       .  A
O185       Ni191   1.915       .  S
O185        C195   1.281       .  A
O186       Ni191   1.912       .  S
O186        C196   1.281       .  A
O187       Ni192   1.935       .  S
O187        C196   1.285       .  A
O188       Ni192   1.933       .  S
O188        C195   1.285       .  A
O189       Ni192   1.910       .  S
O189        C194   1.280       .  A
O190       Ni192   1.906       .  S
O190        C193   1.279       .  A
Ni191      Ni192   2.385       .  S
C193        C302   1.480       .  S
C194        C610   1.481       .  S
C195        C346   1.490       .  S
C196        C247   1.487       .  S
O197       Ni205   1.929       .  S
O197        C207   1.284       .  A
O198       Ni205   1.930       .  S
O198        C208   1.284       .  A
O199       Ni205   1.914       .  S
O199        C209   1.281       .  A
O200       Ni205   1.916       .  S
O200        C210   1.281       .  A
O201       Ni206   1.934       .  S
O201        C210   1.285       .  A
O202       Ni206   1.934       .  S
O202        C209   1.285       .  A
O203       Ni206   1.907       .  S
O203        C208   1.280       .  A
O204       Ni206   1.903       .  S
O204        C207   1.279       .  A
Ni205      Ni206   2.384       .  S
C207        C225   1.481       .  S
C208        C489   1.484       .  S
C209        C280   1.489       .  S
C210        C390   1.490       .  S
O211       Ni219   1.929       .  S
O211        C221   1.284       .  A
O212       Ni219   1.933       .  S
O212        C222   1.284       .  A
O213       Ni219   1.910       .  S
O213        C223   1.280       .  A
O214       Ni219   1.915       .  S
O214        C224   1.281       .  A
O215       Ni220   1.935       .  S
O215        C224   1.285       .  A
O216       Ni220   1.936       .  S
O216        C223   1.285       .  A
O217       Ni220   1.906       .  S
O217        C222   1.280       .  A
O218       Ni220   1.902       .  S
O218        C221   1.278       .  A
Ni219      Ni220   2.385       .  S
C221        C236   1.480       .  S
C222        C522   1.482       .  S
C223        C258   1.488       .  S
C224        C423   1.491       .  S
C225        C226   1.407       .  A
C225        C230   1.408       .  A
C226        C227   1.401       .  A
C226        H239   1.082       .  S
C227        C228   1.401       .  A
C227        H240   1.084       .  S
C228        C229   1.397       .  A
C228        C231   1.439       .  S
C229        C230   1.395       .  A
C229        H241   1.083       .  S
C230        H242   1.083       .  S
C231        C232   1.205       .  T
C232        C233   1.438       .  S
C233        C234   1.402   1_655  A
C233        C238   1.397       .  A
C234        C235   1.401       .  A
C234        H243   1.084       .  S
C235        C236   1.406       .  A
C235        H244   1.082       .  S
C236        C237   1.408       .  A
C237        C238   1.395   1_455  A
C237        H245   1.083       .  S
C238        H246   1.083       .  S
C247        C248   1.407       .  A
C247        C252   1.409       .  A
C248        C249   1.397       .  A
C248        H261   1.083       .  S
C249        C250   1.399       .  A
C249        H262   1.084       .  S
C250        C251   1.403       .  A
C250        C253   1.447       .  S
C251        C252   1.406       .  A
C251        H263   1.083       .  S
C252        H264   1.083       .  S
C253        C254   1.211       .  T
C254        C255   1.447       .  S
C255        C256   1.403       .  A
C255        C260   1.399       .  A
C256        C257   1.406       .  A
C256        H265   1.083       .  S
C257        C258   1.409       .  A
C257        H266   1.083       .  S
C258        C259   1.409       .  A
C259        C260   1.397       .  A
C259        H267   1.083       .  S
C260        H268   1.084       .  S
C269        C270   1.410       .  A
C269        C274   1.409       .  A
C270        C271   1.408       .  A
C270        H283   1.083       .  S
C271        C272   1.404       .  A
C271        H284   1.083       .  S
C272        C273   1.398       .  A
C272        C275   1.449       .  S
C273        C274   1.397       .  A
C273        H285   1.084       .  S
C274        H286   1.083       .  S
C275        C276   1.211       .  T
C276        C277   1.448       .  S
C277        C278   1.399       .  A
C277        C282   1.403       .  A
C278        C279   1.397       .  A
C278        H287   1.084       .  S
C279        C280   1.408       .  A
C279        H288   1.083       .  S
C280        C281   1.409       .  A
C281        C282   1.406       .  A
C281        H289   1.083       .  S
C282        H290   1.083       .  S
C291        C292   1.406       .  A
C291        C296   1.409       .  A
C292        C293   1.401       .  A
C292        H305   1.082       .  S
C293        C294   1.402       .  A
C293        H306   1.084       .  S
C294        C295   1.397       .  A
C294        C297   1.438       .  S
C295        C296   1.395       .  A
C295        H307   1.083       .  S
C296        H308   1.083       .  S
C297        C298   1.205       .  T
C298        C299   1.438       .  S
C299        C300   1.401   1_655  A
C299        C304   1.397       .  A
C300        C301   1.401       .  A
C300        H309   1.084       .  S
C301        C302   1.407       .  A
C301        H310   1.082       .  S
C302        C303   1.408       .  A
C303        C304   1.395   1_455  A
C303        H311   1.083       .  S
C304        H312   1.083       .  S
C313        C314   1.408       .  A
C313        C318   1.410       .  A
C314        C315   1.406       .  A
C314        H327   1.082       .  S
C315        C316   1.404       .  A
C315        H328   1.084       .  S
C316        C317   1.400       .  A
C316        C319   1.452       .  S
C317        C318   1.401       .  A
C317        H329   1.083       .  S
C318        H330   1.083       .  S
C319        C320   1.214       .  T
C320        C321   1.452       .  S
C321        C322   1.400       .  A
C321        C326   1.404       .  A
C322        C323   1.401       .  A
C322        H331   1.083       .  S
C323        C324   1.410       .  A
C323        H332   1.083       .  S
C324        C325   1.409       .  A
C325        C326   1.406       .  A
C325        H333   1.082       .  S
C326        H334   1.083       .  S
C335        C336   1.409       .  A
C335        C340   1.408       .  A
C336        C337   1.400       .  A
C336        H349   1.083       .  S
C337        C338   1.400       .  A
C337        H350   1.083       .  S
C338        C339   1.403       .  A
C338        C341   1.449       .  S
C339        C340   1.404       .  A
C339        H351   1.084       .  S
C340        H352   1.083       .  S
C341        C342   1.212       .  T
C342        C343   1.449       .  S
C343        C344   1.400       .  A
C343        C348   1.403       .  A
C344        C345   1.400       .  A
C344        H353   1.083       .  S
C345        C346   1.410       .  A
C345        H354   1.083       .  S
C346        C347   1.408       .  A
C347        C348   1.404       .  A
C347        H355   1.082       .  S
C348        H356   1.084       .  S
C357        C358   1.409       .  A
C357        C362   1.407       .  A
C358        C359   1.396   1_455  A
C358        H371   1.083       .  S
C359        C360   1.397       .  A
C359        H372   1.083       .  S
C360        C361   1.403   1_655  A
C360        C363   1.443       .  S
C361        C362   1.404       .  A
C361        H373   1.084       .  S
C362        H374   1.082       .  S
C363        C364   1.208       .  T
C364        C365   1.443       .  S
C365        C366   1.397       .  A
C365        C370   1.403       .  A
C366        C367   1.396       .  A
C366        H375   1.083       .  S
C367        C368   1.408       .  A
C367        H376   1.083       .  S
C368        C369   1.408       .  A
C369        C370   1.403       .  A
C369        H377   1.082       .  S
C370        H378   1.084       .  S
C379        C380   1.408       .  A
C379        C384   1.410       .  A
C380        C381   1.406       .  A
C380        H393   1.082       .  S
C381        C382   1.404       .  A
C381        H394   1.083       .  S
C382        C383   1.399       .  A
C382        C385   1.450       .  S
C383        C384   1.399       .  A
C383        H395   1.083       .  S
C384        H396   1.083       .  S
C385        C386   1.212       .  T
C386        C387   1.450       .  S
C387        C388   1.403       .  A
C387        C392   1.399       .  A
C388        C389   1.405       .  A
C388        H397   1.083       .  S
C389        C390   1.408       .  A
C389        H398   1.082       .  S
C390        C391   1.409       .  A
C391        C392   1.400       .  A
C391        H399   1.083       .  S
C392        H400   1.083       .  S
C401        C402   1.409       .  A
C401        C406   1.410       .  A
C402        C403   1.397       .  A
C402        H415   1.083       .  S
C403        C404   1.398       .  A
C403        H416   1.084       .  S
C404        C405   1.404       .  A
C404        C407   1.450   1_556  S
C405        C406   1.408       .  A
C405        H417   1.083       .  S
C406        H418   1.083       .  S
C407        C408   1.212       .  T
C408        C409   1.450       .  S
C409        C410   1.404       .  A
C409        C414   1.399       .  A
C410        C411   1.407       .  A
C410        H419   1.083       .  S
C411        C412   1.409       .  A
C411        H420   1.082       .  S
C412        C413   1.409       .  A
C413        C414   1.398       .  A
C413        H421   1.083       .  S
C414        H422   1.083       .  S
C423        C424   1.409       .  A
C423        C428   1.409       .  A
C424        C425   1.399       .  A
C424        H437   1.083       .  S
C425        C426   1.399       .  A
C425        H438   1.083       .  S
C426        C427   1.404       .  A
C426        C429   1.450       .  S
C427        C428   1.406       .  A
C427        H439   1.083       .  S
C428        H440   1.082       .  S
C429        C430   1.212       .  T
C430        C431   1.450       .  S
C431        C432   1.404       .  A
C431        C436   1.399       .  A
C432        C433   1.406       .  A
C432        H441   1.083       .  S
C433        C434   1.409       .  A
C433        H442   1.082       .  S
C434        C435   1.410       .  A
C435        C436   1.399       .  A
C435        H443   1.083       .  S
C436        H444   1.083       .  S
C445        C446   1.409       .  A
C445        C450   1.409       .  A
C446        C447   1.408       .  A
C446        H459   1.083       .  S
C447        C448   1.404       .  A
C447        H460   1.083       .  S
C448        C449   1.398       .  A
C448        C451   1.449       .  S
C449        C450   1.397       .  A
C449        H461   1.084       .  S
C450        H462   1.083       .  S
C451        C452   1.212   1_554  T
C452        C453   1.449       .  S
C453        C454   1.400       .  A
C453        C458   1.403       .  A
C454        C455   1.398       .  A
C454        H463   1.084       .  S
C455        C456   1.408       .  A
C455        H464   1.083       .  S
C456        C457   1.408       .  A
C457        C458   1.406       .  A
C457        H465   1.083       .  S
C458        H466   1.083       .  S
C467        C468   1.407       .  A
C467        C472   1.408       .  A
C468        C469   1.401       .  A
C468        H481   1.082       .  S
C469        C470   1.402   1_455  A
C469        H482   1.084       .  S
C470        C471   1.397       .  A
C470        C473   1.438       .  S
C471        C472   1.394   1_655  A
C471        H483   1.083       .  S
C472        H484   1.083       .  S
C473        C474   1.205       .  T
C474        C475   1.439       .  S
C475        C476   1.402       .  A
C475        C480   1.397       .  A
C476        C477   1.401       .  A
C476        H485   1.084       .  S
C477        C478   1.406       .  A
C477        H486   1.082       .  S
C478        C479   1.409       .  A
C479        C480   1.395       .  A
C479        H487   1.083       .  S
C480        H488   1.083       .  S
C489        C490   1.407       .  A
C489        C494   1.409       .  A
C490        C491   1.393       .  A
C490        H503   1.083       .  S
C491        C492   1.397       .  A
C491        H504   1.084       .  S
C492        C493   1.402       .  A
C492        C495   1.441       .  S
C493        C494   1.406       .  A
C493        H505   1.083       .  S
C494        H506   1.082       .  S
C495        C496   1.207       .  T
C496        C497   1.441       .  S
C497        C498   1.402       .  A
C497        C502   1.399       .  A
C498        C499   1.404       .  A
C498        H507   1.083       .  S
C499        C500   1.408       .  A
C499        H508   1.083       .  S
C500        C501   1.405       .  A
C501        C502   1.394       .  A
C501        H509   1.084       .  S
C502        H510   1.084       .  S
C511        C512   1.405       .  A
C511        C516   1.408       .  A
C512        C513   1.395       .  A
C512        H525   1.083       .  S
C513        C514   1.399       .  A
C513        H526   1.084       .  S
C514        C515   1.402       .  A
C514        C517   1.442       .  S
C515        C516   1.404       .  A
C515        H527   1.083       .  S
C516        H528   1.083       .  S
C517        C518   1.207       .  T
C518        C519   1.442       .  S
C519        C520   1.403       .  A
C519        C524   1.398       .  A
C520        C521   1.406       .  A
C520        H529   1.083       .  S
C521        C522   1.408       .  A
C521        H530   1.083       .  S
C522        C523   1.406       .  A
C523        C524   1.393       .  A
C523        H531   1.083       .  S
C524        H532   1.084       .  S
C533        C534   1.408       .  A
C533        C538   1.407       .  A
C534        C535   1.396       .  A
C534        H547   1.083       .  S
C535        C536   1.397       .  A
C535        H548   1.083       .  S
C536        C537   1.401       .  A
C536        C539   1.438       .  S
C537        C538   1.400       .  A
C537        H549   1.084       .  S
C538        H550   1.083       .  S
C539        C540   1.205       .  T
C540        C541   1.438   1_565  S
C541        C542   1.398       .  A
C541        C546   1.401       .  A
C542        C543   1.396       .  A
C542        H551   1.083   1_545  S
C543        C544   1.408       .  A
C543        H552   1.083       .  S
C544        C545   1.407       .  A
C545        C546   1.400       .  A
C545        H553   1.083       .  S
C546        H554   1.084       .  S
C555        C556   1.409       .  A
C555        C560   1.407       .  A
C556        C557   1.406       .  A
C556        H569   1.082       .  S
C557        C558   1.402       .  A
C557        H570   1.083       .  S
C558        C559   1.398       .  A
C558        C561   1.442       .  S
C559        C560   1.393       .  A
C559        H571   1.084       .  S
C560        H572   1.083       .  S
C561        C562   1.207       .  T
C562        C563   1.442       .  S
C563        C564   1.398       .  A
C563        C568   1.403       .  A
C564        C565   1.393       .  A
C564        H573   1.084       .  S
C565        C566   1.406       .  A
C565        H574   1.084       .  S
C566        C567   1.407       .  A
C567        C568   1.405       .  A
C567        H575   1.083       .  S
C568        H576   1.083       .  S
C577        C578   1.409       .  A
C577        C582   1.409       .  A
C578        C579   1.398       .  A
C578        H591   1.083       .  S
C579        C580   1.399       .  A
C579        H592   1.084       .  S
C580        C581   1.404       .  A
C580        C583   1.451       .  S
C581        C582   1.408       .  A
C581        H593   1.083       .  S
C582        H594   1.082       .  S
C583        C584   1.213       .  T
C584        C585   1.451       .  S
C585        C586   1.404       .  A
C585        C590   1.400       .  A
C586        C587   1.407       .  A
C586        H595   1.083       .  S
C587        C588   1.409       .  A
C587        H596   1.083       .  S
C588        C589   1.409       .  A
C589        C590   1.399       .  A
C589        H597   1.083       .  S
C590        H598   1.084       .  S
C599        C600   1.405       .  A
C599        C604   1.409       .  A
C600        C601   1.392       .  A
C600        H613   1.084       .  S
C601        C602   1.397       .  A
C601        H614   1.084       .  S
C602        C603   1.403       .  A
C602        C605   1.441       .  S
C603        C604   1.406       .  A
C603        H615   1.083       .  S
C604        H616   1.082       .  S
C605        C606   1.207       .  T
C606        C607   1.441       .  S
C607        C608   1.401       .  A
C607        C612   1.399       .  A
C608        C609   1.404       .  A
C608        H617   1.083       .  S
C609        C610   1.409       .  A
C609        H618   1.083       .  S
C610        C611   1.405       .  A
C611        C612   1.394       .  A
C611        H619   1.083       .  S
C612        H620   1.084       .  S
C621        C622   1.409       .  A
C621        C626   1.409       .  A
C622        C623   1.395       .  A
C622        H635   1.083       .  S
C623        C624   1.397       .  A
C623        H636   1.084       .  S
C624        C625   1.405       .  A
C624        C627   1.448       .  S
C625        C626   1.408       .  A
C625        H637   1.083       .  S
C626        H638   1.082       .  S
C627        C628   1.211       .  T
C628        C629   1.448       .  S
C629        C630   1.403       .  A
C629        C634   1.399       .  A
C630        C631   1.406       .  A
C630        H639   1.083       .  S
C631        C632   1.409       .  A
C631        H640   1.083       .  S
C632        C633   1.408       .  A
C633        C634   1.398       .  A
C633        H641   1.083       .  S
C634        H642   1.084       .  S
C643        C644   1.409       .  A
C643        C648   1.407       .  A
C644        C645   1.396       .  A
C644        H657   1.083       .  S
C645        C646   1.398       .  A
C645        H658   1.083   1_545  S
C646        C647   1.401       .  A
C646        C649   1.439   1_545  S
C647        C648   1.401       .  A
C647        H659   1.084       .  S
C648        H660   1.083       .  S
C649        C650   1.206       .  T
C650        C651   1.439       .  S
C651        C652   1.398       .  A
C651        C656   1.401       .  A
C652        C653   1.396       .  A
C652        H661   1.083       .  S
C653        C654   1.408       .  A
C653        H662   1.083       .  S
C654        C655   1.406       .  A
C655        C656   1.400       .  A
C655        H663   1.083       .  S
C656        H664   1.084       .  S
C665        C666   1.408       .  A
C665        C670   1.405       .  A
C666        C667   1.404       .  A
C666        H679   1.083       .  S
C667        C668   1.402       .  A
C667        H680   1.083       .  S
C668        C669   1.398       .  A
C668        C671   1.440       .  S
C669        C670   1.393       .  A
C669        H681   1.084       .  S
C670        H682   1.084       .  S
C671        C672   1.206       .  T
C672        C673   1.440       .  S
C673        C674   1.398       .  A
C673        C678   1.401       .  A
C674        C675   1.393       .  A
C674        H683   1.084       .  S
C675        C676   1.406       .  A
C675        H684   1.083       .  S
C676        C677   1.408       .  A
C677        C678   1.404       .  A
C677        H685   1.083       .  S
C678        H686   1.083       .  S
C687        C688   1.409       .  A
C687        C692   1.410       .  A
C688        C689   1.406       .  A
C688        H701   1.082       .  S
C689        C690   1.404       .  A
C689        H702   1.084       .  S
C690        C691   1.400       .  A
C690        C693   1.451       .  S
C691        C692   1.400       .  A
C691        H703   1.083       .  S
C692        H704   1.083       .  S
C693        C694   1.213       .  T
C694        C695   1.451       .  S
C695        C696   1.403       .  A
C695        C700   1.400       .  A
C696        C697   1.405       .  A
C696        H705   1.084       .  S
C697        C698   1.409       .  A
C697        H706   1.082       .  S
C698        C699   1.409       .  A
C699        C700   1.401       .  A
C699        H707   1.083       .  S
C700        H708   1.083       .  S
C709        C710   1.409       .  A
C709        C714   1.407       .  A
C710        C711   1.406       .  A
C710        H723   1.082       .  S
C711        C712   1.403       .  A
C711        H724   1.083       .  S
C712        C713   1.397       .  A
C712        C715   1.443       .  S
C713        C714   1.393       .  A
C713        H725   1.084       .  S
C714        H726   1.083       .  S
C715        C716   1.208       .  T
C716        C717   1.443       .  S
C717        C718   1.398       .  A
C717        C722   1.403       .  A
C718        C719   1.394       .  A
C718        H727   1.084       .  S
C719        C720   1.406       .  A
C719        H728   1.083       .  S
C720        C721   1.408       .  A
C721        C722   1.406       .  A
C721        H729   1.083       .  S
C722        H730   1.083       .  S
C731        C732   1.410       .  A
C731        C736   1.408       .  A
C732        C733   1.400       .  A
C732        H745   1.083       .  S
C733        C734   1.399       .  A
C733        H746   1.083       .  S
C734        C735   1.403       .  A
C734        C737   1.448       .  S
C735        C736   1.404       .  A
C735        H747   1.084       .  S
C736        H748   1.082       .  S
C737        C738   1.211       .  T
C738        C739   1.448       .  S
C739        C740   1.399       .  A
C739        C744   1.403       .  A
C740        C741   1.399       .  A
C740        H749   1.083       .  S
C741        C742   1.409       .  A
C741        H750   1.083       .  S
C742        C743   1.408       .  A
C743        C744   1.405       .  A
C743        H751   1.082       .  S
C744        H752   1.084       .  S
C753        C754   1.406       .  A
C753        C758   1.408       .  A
C754        C755   1.399       .  A
C754        H767   1.082       .  S
C755        C756   1.400       .  A
C755        H768   1.084       .  S
C756        C757   1.397       .  A
C756        C759   1.436       .  S
C757        C758   1.395       .  A
C757        H769   1.083       .  S
C758        H770   1.083       .  S
C759        C760   1.204       .  T
C760        C761   1.436   1_565  S
C761        C762   1.401       .  A
C761        C766   1.397       .  A
C762        C763   1.400       .  A
C762        H771   1.084       .  S
C763        C764   1.405       .  A
C763        H772   1.083       .  S
C764        C765   1.408       .  A
C765        C766   1.394       .  A
C765        H773   1.083       .  S
C766        H774   1.083   1_545  S
C775        C776   1.405       .  A
C775        C780   1.407       .  A
C776        C777   1.393       .  A
C776        H789   1.084       .  S
C777        C778   1.398       .  A
C777        H790   1.084       .  S
C778        C779   1.402       .  A
C778        C781   1.440       .  S
C779        C780   1.404       .  A
C779        H791   1.084       .  S
C780        H792   1.083       .  S
C781        C782   1.206       .  T
C782        C783   1.440       .  S
C783        C784   1.402       .  A
C783        C788   1.397       .  A
C784        C785   1.405       .  A
C784        H793   1.083       .  S
C785        C786   1.408       .  A
C785        H794   1.083       .  S
C786        C787   1.407       .  A
C787        C788   1.392       .  A
C787        H795   1.083       .  S
C788        H796   1.084       .  S
C797        C798   1.409       .  A
C797        C802   1.408       .  A
C798        C799   1.398       .  A
C798        H811   1.083       .  S
C799        C800   1.399       .  A
C799        H812   1.083       .  S
C800        C801   1.403       .  A
C800        C803   1.447       .  S
C801        C802   1.404       .  A
C801        H813   1.084       .  S
C802        H814   1.082       .  S
C803        C804   1.210       .  T
C804        C805   1.447       .  S
C805        C806   1.398       .  A
C805        C810   1.403       .  A
C806        C807   1.399       .  A
C806        H815   1.083       .  S
C807        C808   1.410       .  A
C807        H816   1.083       .  S
C808        C809   1.408       .  A
C809        C810   1.404       .  A
C809        H817   1.082       .  S
C810        H818   1.084       .  S
C819        C820   1.409       .  A
C819        C824   1.409       .  A
C820        C821   1.397       .  A
C820        H833   1.083       .  S
C821        C822   1.399       .  A
C821        H834   1.084       .  S
C822        C823   1.403       .  A
C822        C825   1.448       .  S
C823        C824   1.406       .  A
C823        H835   1.083       .  S
C824        H836   1.083       .  S
C825        C826   1.211   1_554  T
C826        C827   1.448       .  S
C827        C828   1.404       .  A
C827        C832   1.399       .  A
C828        C829   1.407       .  A
C828        H837   1.083       .  S
C829        C830   1.409       .  A
C829        H838   1.083       .  S
C830        C831   1.408       .  A
C831        C832   1.397       .  A
C831        H839   1.083       .  S
C832        H840   1.084       .  S
C841        C842   1.407       .  A
C841        C846   1.408       .  A
C842        C843   1.392       .  A
C842        H855   1.083       .  S
C843        C844   1.397       .  A
C843        H856   1.084       .  S
C844        C845   1.403       .  A
C844        C847   1.440       .  S
C845        C846   1.405       .  A
C845        H857   1.083       .  S
C846        H858   1.082       .  S
C847        C848   1.206       .  T
C848        C849   1.441       .  S
C849        C850   1.402       .  A
C849        C854   1.399       .  A
C850        C851   1.404       .  A
C850        H859   1.083       .  S
C851        C852   1.408       .  A
C851        H860   1.083       .  S
C852        C853   1.406       .  A
C853        C854   1.394       .  A
C853        H861   1.083       .  S
C854        H862   1.084       .  S
C863        C864   1.410       .  A
C863        C868   1.408       .  A
C864        C865   1.402       .  A
C864        H877   1.083       .  S
C865        C866   1.400       .  A
C865        H878   1.083       .  S
C866        C867   1.404       .  A
C866        C869   1.453       .  S
C867        C868   1.406       .  A
C867        H879   1.084       .  S
C868        H880   1.082       .  S
C869        C870   1.214       .  T
C870        C871   1.453       .  S
C871        C872   1.400       .  A
C871        C876   1.404       .  A
C872        C873   1.401       .  A
C872        H881   1.083       .  S
C873        C874   1.409       .  A
C873        H882   1.083       .  S
C874        C875   1.409       .  A
C875        C876   1.406       .  A
C875        H883   1.082       .  S
C876        H884   1.083       .  S
C885        C886   1.409       .  A
C885        C890   1.409       .  A
C886        C887   1.409       .  A
C886        H899   1.082       .  S
C887        C888   1.405       .  A
C887        H900   1.083       .  S
C888        C889   1.398       .  A
C888        C891   1.452       .  S
C889        C890   1.397       .  A
C889        H901   1.084       .  S
C890        H902   1.083       .  S
C891        C892   1.213   1_556  T
C892        C893   1.452       .  S
C893        C894   1.399       .  A
C893        C898   1.405       .  A
C894        C895   1.398       .  A
C894        H903   1.084       .  S
C895        C896   1.409       .  A
C895        H904   1.083       .  S
C896        C897   1.410       .  A
C897        C898   1.409       .  A
C897        H905   1.083       .  S
C898        H906   1.083       .  S
C907        C908   1.405       .  A
C907        C912   1.408       .  A
C908        C909   1.400       .  A
C908        H921   1.083       .  S
C909        C910   1.401       .  A
C909        H922   1.084       .  S
C910        C911   1.396       .  A
C910        C913   1.436   1_545  S
C911        C912   1.394       .  A
C911        H923   1.083   1_545  S
C912        H924   1.083       .  S
C913        C914   1.204       .  T
C914        C915   1.436       .  S
C915        C916   1.401       .  A
C915        C920   1.397       .  A
C916        C917   1.400       .  A
C916        H925   1.084       .  S
C917        C918   1.406       .  A
C917        H926   1.083       .  S
C918        C919   1.408       .  A
C919        C920   1.394       .  A
C919        H927   1.083       .  S
C920        H928   1.083       .  S
