geometry optimzed in LAMMPS
_audit_creation_date              2020-12-01 
_audit_creation_method            'lammps2cif' 
_symmetry_space_group_name_H-M    'P1' 
_symmetry_Int_Tables_number       1 
_symmetry_cell_setting            triclinic 
loop_ 
_symmetry_equiv_pos_as_xyz 
  x,y,z 
_cell_length_a                    78.53946729 
_cell_length_b                    78.4020883502444 
_cell_length_c                    78.34188887476115 
_cell_angle_alpha                 89.81495748078191 
_cell_angle_beta                  89.96170955266811 
_cell_angle_gamma                 89.96774931885903 
loop_ 
_atom_site_label 
_atom_site_type_symbol 
_atom_site_fract_x 
_atom_site_fract_y 
_atom_site_fract_z 
_atom_site_charge 
O1          O  0.75593397  0.48079337  0.78461781    -0.72300
O2          O  0.77968537  0.51621615  0.75636627    -0.73300
O3          O  0.75484786  0.51697745  0.78289494    -0.61900
O4          O  0.78054849  0.48004794  0.75796540    -0.70400
O5          O  0.75978419  0.47898531  0.73879707    -0.69900
O6          O  0.73439930  0.51568354  0.76340485    -0.61200
O7          O  0.75906525  0.51516594  0.73703648    -0.73700
O8          O  0.73532048  0.47958293  0.76528773    -0.72400
Cu9        Cu  0.76848583  0.49856516  0.77114124     1.04600
Cu10       Cu  0.74643075  0.49730146  0.75046890     1.04300
C11         C  0.74185083  0.47460273  0.77939268     0.93900
C12         C  0.77319819  0.52127125  0.74228045     0.93000
C13         C  0.74053383  0.52212024  0.77702090     0.85100
C14         C  0.77410942  0.47369920  0.74440844     0.91400
O15         O  0.47765869  0.74533900  0.76522755    -0.72300
O16         O  0.51341623  0.77034641  0.73857406    -0.73300
O17         O  0.51367708  0.74436425  0.76383573    -0.61900
O18         O  0.47737824  0.77129431  0.73969559    -0.70400
O19         O  0.47877916  0.79141189  0.75948263    -0.69900
O20         O  0.51483907  0.76384110  0.78427861    -0.61200
O21         O  0.51497514  0.79000360  0.75883479    -0.73700
O22         O  0.47860846  0.76523849  0.78528018    -0.72400
Cu23       Cu  0.49547286  0.75717353  0.75115549     1.04600
Cu24       Cu  0.49681780  0.77832748  0.77269991     1.04300
C25         C  0.47262325  0.75122143  0.77956284     0.93900
C26         C  0.51981708  0.78410481  0.74444226     0.93000
C27         C  0.51996724  0.74975406  0.77784428     0.85100
C28         C  0.47250737  0.78568829  0.74555303     0.91400
O29         O  0.75996805  0.73988974  0.51516123    -0.72300
O30         O  0.73533034  0.76648348  0.47889959    -0.73300
O31         O  0.76173839  0.74156529  0.47888722    -0.61900
O32         O  0.73374790  0.76489440  0.51521352    -0.70400
O33         O  0.75315200  0.78540216  0.51660991    -0.69900
O34         O  0.78124959  0.76191784  0.48082527    -0.61200
O35         O  0.75483903  0.78687433  0.48052123    -0.73700
O36         O  0.77946034  0.76027464  0.51702395    -0.72400
Cu37       Cu  0.74702470  0.75248858  0.49697849     1.04600
Cu38       Cu  0.76784864  0.77432499  0.49881064     1.04300
C39         C  0.77357224  0.74582146  0.52180140     0.93900
C40         C  0.74116512  0.78090883  0.47402063     0.93000
C41         C  0.77594497  0.74804378  0.47418769     0.85100
C42         C  0.73903715  0.77894085  0.52153241     0.91400
N43         N  0.30989700  0.87082297  0.36201154    -0.26700
N44         N  0.31845422  0.85678319  0.35839043    -0.34500
C45         C  0.31308118  0.84411732  0.36868220     0.01700
C46         C  0.30048403  0.85053200  0.37925894     0.07700
C47         C  0.29881173  0.86749385  0.37465468    -0.05400
H48         H  0.31791535  0.83120284  0.36834863     0.08300
H49         H  0.29019430  0.87677782  0.38009059     0.09500
Cu50       Cu  0.33688055  0.85570158  0.33951727     0.44200
Cu51       Cu  0.31387246  0.89388824  0.34977910     0.42000
Cu52       Cu  0.34579267  0.89501381  0.31627215     0.43900
N53         N  0.35480269  0.85777768  0.32023717    -0.34100
N54         N  0.35794980  0.87191891  0.31154544    -0.28300
C55         C  0.37029296  0.86874693  0.30004325    -0.04400
C56         C  0.37519972  0.85184828  0.30169680     0.07800
C57         C  0.36509437  0.84531264  0.31461385     0.01600
H58         H  0.37549537  0.87813127  0.29133356     0.09200
H59         H  0.36515390  0.83243303  0.31960336     0.08300
N60         N  0.33250218  0.91636061  0.32466693    -0.35500
N61         N  0.32090753  0.91585452  0.33690053    -0.27700
C62         C  0.31536612  0.93176215  0.34001103    -0.02900
C63         C  0.32385326  0.94287428  0.32922685     0.05700
C64         C  0.33460656  0.93265544  0.31963909     0.03800
H65         H  0.30614639  0.93501292  0.34974094     0.08900
H66         H  0.34368902  0.93676413  0.31009361     0.07700
N67         N  0.31932605  0.13621199  0.36820239    -0.26700
N68         N  0.32759139  0.15050548  0.36478435    -0.34500
C69         C  0.32212592  0.16277674  0.37539988     0.01700
C70         C  0.30977015  0.15591575  0.38599751     0.07700
C71         C  0.30831849  0.13903871  0.38106011    -0.05400
H72         H  0.32669753  0.17578499  0.37521197     0.08300
H73         H  0.29985114  0.12951266  0.38635720     0.09500
Cu74       Cu  0.34565212  0.15299427  0.34561187     0.44200
Cu75       Cu  0.32328087  0.11364540  0.35504580     0.42000
Cu76       Cu  0.35306554  0.11577200  0.31965584     0.43900
N77         N  0.36297420  0.15242031  0.32562167    -0.34100
N78         N  0.36543631  0.13884035  0.31597675    -0.28300
C79         C  0.37742993  0.14239941  0.30425838    -0.04400
C80         C  0.38286735  0.15901315  0.30667031     0.07800
C81         C  0.37343100  0.16497664  0.32034660     0.01600
H82         H  0.38205689  0.13339275  0.29491074     0.09200
H83         H  0.37414418  0.17748070  0.32610072     0.08300
N84         N  0.34022747  0.09377385  0.32679147    -0.35500
N85         N  0.32947445  0.09301263  0.33976081    -0.27700
C86         C  0.32381331  0.07692166  0.34142562    -0.02900
C87         C  0.33136572  0.06704278  0.32890362     0.05700
C88         C  0.34168510  0.07816676  0.31985197     0.03800
H89         H  0.31505509  0.07273762  0.35123709     0.08900
H90         H  0.34993324  0.07510137  0.30922721     0.07700
O91         O  0.51473641  0.22796912  0.19641859    -0.72300
O92         O  0.47812782  0.20355136  0.22278114    -0.73300
O93         O  0.47861243  0.22872215  0.19658840    -0.61900
O94         O  0.51435130  0.20267486  0.22266057    -0.70400
O95         O  0.51502311  0.22315242  0.24213476    -0.69900
O96         O  0.47895598  0.24891690  0.21636979    -0.61200
O97         O  0.47881790  0.22382818  0.24247085    -0.73700
O98         O  0.51511961  0.24830609  0.21605731    -0.72400
Cu99       Cu  0.49645140  0.21500562  0.20892603     1.04600
Cu100      Cu  0.49700518  0.23674737  0.22993742     1.04300
C101        C  0.52064367  0.24204094  0.20207429     0.93900
C102        C  0.47265203  0.20989899  0.23675358     0.93000
C103        C  0.47310929  0.24289815  0.20240895     0.85100
C104        C  0.52035128  0.20882959  0.23649473     0.91400
N105        N  0.61499515  0.86573873  0.32235219    -0.26700
N106        N  0.61711560  0.85144539  0.33109284    -0.34500
C107        C  0.60643892  0.83952453  0.32499684     0.01700
C108        C  0.59718301  0.84663594  0.31171807     0.07700
C109        C  0.60298236  0.86325819  0.31038334    -0.05400
H110        H  0.60561838  0.82660892  0.32981845     0.08300
H111        H  0.59867081  0.87292205  0.30149369     0.09500
Cu112      Cu  0.63477457  0.84862673  0.35056270     0.44200
Cu113      Cu  0.62818417  0.88809347  0.32743795     0.42000
Cu114      Cu  0.66065751  0.88556140  0.36028499     0.43900
N115        N  0.65447915  0.84836633  0.36815970    -0.34100
N116        N  0.66412704  0.86174542  0.37154814    -0.28300
C117        C  0.67585336  0.85726095  0.38325609    -0.04400
C118        C  0.67344025  0.84023984  0.38745955     0.07800
C119        C  0.65976784  0.83504734  0.37763348     0.01600
H120        H  0.68530987  0.86583820  0.38841160     0.09200
H121        H  0.65406457  0.82249465  0.37734643     0.08300
N122        N  0.65389612  0.90804912  0.34784900    -0.35500
N123        N  0.64204557  0.90896733  0.33589920    -0.27700
C124        C  0.64012328  0.92535402  0.33110437    -0.02900
C125        C  0.65129098  0.93526578  0.34050146     0.05700
C126        C  0.65984013  0.92383196  0.35094335     0.03800
H127        H  0.63095249  0.92972078  0.32176943     0.08900
H128        H  0.66936278  0.92679977  0.36045181     0.07700
N129        N  0.62413423  0.13330057  0.31704863    -0.26700
N130        N  0.62777951  0.14738881  0.32551228    -0.34500
C131        C  0.61806791  0.16020192  0.31950760     0.01700
C132        C  0.60782172  0.15390772  0.30660788     0.07700
C133        C  0.61204519  0.13679166  0.30537975    -0.05400
H134        H  0.61834690  0.17311690  0.32431875     0.08300
H135        H  0.60650610  0.12744540  0.29691539     0.09500
Cu136      Cu  0.64542324  0.14843149  0.34519084     0.44200
Cu137      Cu  0.63500068  0.10978530  0.32257695     0.42000
Cu138      Cu  0.66571462  0.10839605  0.35706623     0.43900
N139        N  0.66337825  0.14616665  0.36449361    -0.34100
N140        N  0.67089327  0.13164724  0.36868327    -0.28300
C141        C  0.68194217  0.13456794  0.38145379    -0.04400
C142        C  0.68134700  0.15172817  0.38554281     0.07800
C143        C  0.66941372  0.15868530  0.37452198     0.01600
H144        H  0.68985748  0.12488154  0.38729700     0.09200
H145        H  0.66550797  0.17189172  0.37367479     0.08300
N146        N  0.65700853  0.08680651  0.34439188    -0.35500
N147        N  0.64578162  0.08742363  0.33183548    -0.27700
C148        C  0.64205087  0.07144516  0.32693016    -0.02900
C149        C  0.65135225  0.06015510  0.33683655     0.05700
C150        C  0.66074725  0.07036283  0.34776569     0.03800
H151        H  0.63294976  0.06829508  0.31707275     0.08900
H152        H  0.66934305  0.06618493  0.35771835     0.07700
O153        O  0.76114757  0.21247822  0.47211456    -0.72300
O154        O  0.78871911  0.23708623  0.50764796    -0.73300
O155        O  0.76106238  0.21374172  0.50825775    -0.61900
O156        O  0.78905969  0.23588441  0.47143819    -0.70400
O157        O  0.77062001  0.25734070  0.47066857    -0.69900
O158        O  0.74295162  0.23549000  0.50759605    -0.61200
O159        O  0.77038567  0.25863065  0.50674184    -0.73700
O160        O  0.74301740  0.23419805  0.47141575    -0.72400
Cu161      Cu  0.77565512  0.22401902  0.48987549     1.04600
Cu162      Cu  0.75612910  0.24715090  0.48904780     1.04300
C163        C  0.74762766  0.21946694  0.46627146     0.93900
C164        C  0.78379300  0.25171763  0.51284896     0.93000
C165        C  0.74766644  0.22116583  0.51378002     0.85100
C166        C  0.78423534  0.25021198  0.46531604     0.91400
N167        N  0.66648300  0.86977902  0.61973358    -0.26700
N168        N  0.65701604  0.85619188  0.62284500    -0.34500
C169        C  0.66285997  0.84304552  0.61349210     0.01700
C170        C  0.67668371  0.84866678  0.60401281     0.07700
C171        C  0.67858588  0.86567125  0.60832728    -0.05400
H172        H  0.65742142  0.83037444  0.61361722     0.08300
H173        H  0.68802465  0.87448490  0.60347018     0.09500
Cu174      Cu  0.63689452  0.85637372  0.63999574     0.44200
Cu175      Cu  0.66240919  0.89338559  0.63094941     0.42000
Cu176      Cu  0.63003761  0.89607319  0.66353762     0.43900
N177        N  0.61938478  0.85926821  0.65959246    -0.34100
N178        N  0.61729683  0.87336654  0.66859278    -0.28300
C179        C  0.60580384  0.87037718  0.68101193    -0.04400
C180        C  0.60032151  0.85366133  0.67964175     0.07800
C181        C  0.60917478  0.84704243  0.66590391     0.01600
H182        H  0.60175882  0.87969116  0.69033406     0.09200
H183        H  0.60865460  0.83412963  0.66111393     0.08300
N184        N  0.64364329  0.91706535  0.65468178    -0.35500
N185        N  0.65555965  0.91601863  0.64280800    -0.27700
C186        C  0.66149307  0.93175809  0.63938692    -0.02900
C187        C  0.65284708  0.94332841  0.64951685     0.05700
C188        C  0.64163403  0.93352939  0.65908335     0.03800
H189        H  0.67109739  0.93459224  0.62988931     0.08900
H190        H  0.63245901  0.93801427  0.66834012     0.07700
N191        N  0.62410664  0.14131393  0.66649546    -0.26700
N192        N  0.62714798  0.15515528  0.65731475    -0.34500
C193        C  0.61626612  0.16753735  0.66209044     0.01700
C194        C  0.60595075  0.16118071  0.67496889     0.07700
C195        C  0.61132625  0.14453399  0.67742901    -0.05400
H196        H  0.61590300  0.18020464  0.65658214     0.08300
H197        H  0.60611106  0.13526542  0.68624697     0.09500
Cu198      Cu  0.64586421  0.15622582  0.63866235     0.44200
Cu199      Cu  0.63649850  0.11819852  0.66303053     0.42000
Cu200      Cu  0.66806559  0.11590671  0.63010534     0.43900
N201        N  0.66530460  0.15338889  0.62098439    -0.34100
N202        N  0.67332931  0.13886859  0.61795067    -0.28300
C203        C  0.68508346  0.14148843  0.60574901    -0.04400
C204        C  0.68443740  0.15844091  0.60085188     0.07800
C205        C  0.67175286  0.16561034  0.61078572     0.01600
H206        H  0.69341482  0.13170562  0.60075827     0.09200
H207        H  0.66744161  0.17871326  0.61063074     0.08300
N208        N  0.65972796  0.09465557  0.64357973    -0.35500
N209        N  0.64809505  0.09557125  0.65573097    -0.27700
C210        C  0.64445370  0.07972563  0.66123788    -0.02900
C211        C  0.65426527  0.06822979  0.65212894     0.05700
C212        C  0.66386361  0.07818015  0.64107071     0.03800
H213        H  0.63494572  0.07677720  0.67079827     0.08900
H214        H  0.67271312  0.07377848  0.63146146     0.07700
N215        N  0.31629912  0.86243576  0.61948014    -0.26700
N216        N  0.32636613  0.84896243  0.62048203    -0.34500
C217        C  0.32133473  0.83749117  0.60875249     0.01700
C218        C  0.30741436  0.84413685  0.60006352     0.07700
C219        C  0.30461691  0.85994981  0.60724405    -0.05400
H220        H  0.32726511  0.82518955  0.60684387     0.08300
H221        H  0.29488271  0.86909056  0.60377091     0.09500
Cu222      Cu  0.34617462  0.84710897  0.63816442     0.44200
Cu223      Cu  0.31922843  0.88400336  0.63404089     0.42000
Cu224      Cu  0.35407816  0.88517063  0.66390545     0.43900
N225        N  0.36433926  0.84846808  0.65759950    -0.34100
N226        N  0.36713785  0.86220076  0.66696903    -0.28300
C227        C  0.37953511  0.85874090  0.67835234    -0.04400
C228        C  0.38483880  0.84202847  0.67608096     0.07800
C229        C  0.37489074  0.83594683  0.66281046     0.01600
H230        H  0.38432530  0.86777828  0.68757653     0.09200
H231        H  0.37526620  0.82330683  0.65732470     0.08300
N232        N  0.33937628  0.90639691  0.65756877    -0.35500
N233        N  0.32649896  0.90570734  0.64675021    -0.27700
C234        C  0.32032805  0.92147211  0.64418740    -0.02900
C235        C  0.32975952  0.93274280  0.65382880     0.05700
C236        C  0.34170950  0.92274231  0.66223686     0.03800
H237        H  0.31019044  0.92454578  0.63535178     0.08900
H238        H  0.35181918  0.92706344  0.67052970     0.07700
N239        N  0.31762596  0.12909751  0.62024428    -0.26700
N240        N  0.32700128  0.14274906  0.62336306    -0.34500
C241        C  0.32115502  0.15587363  0.61399798     0.01700
C242        C  0.30741098  0.15028635  0.60451315     0.07700
C243        C  0.30551926  0.13324244  0.60880139    -0.05400
H244        H  0.32654996  0.16855847  0.61418350     0.08300
H245        H  0.29611624  0.12445200  0.60390273     0.09500
Cu246      Cu  0.34714428  0.14362604  0.64038740     0.44200
Cu247      Cu  0.32172318  0.10541249  0.63152457     0.42000
Cu248      Cu  0.35412675  0.10567442  0.66443735     0.43900
N249        N  0.36542243  0.14183781  0.65935104    -0.34100
N250        N  0.36773966  0.12781794  0.66843573    -0.28300
C251        C  0.38007489  0.13053477  0.67997855    -0.04400
C252        C  0.38583825  0.14710078  0.67808230     0.07800
C253        C  0.37625395  0.15391084  0.66485797     0.01600
H254        H  0.38446833  0.12112609  0.68909967     0.09200
H255        H  0.37691232  0.16671804  0.65973104     0.08300
N256        N  0.34104056  0.08411640  0.65700660    -0.35500
N257        N  0.32935260  0.08377597  0.64488100    -0.27700
C258        C  0.32430300  0.06752946  0.64258301    -0.02900
C259        C  0.33330931  0.05722094  0.65381393     0.05700
C260        C  0.34373974  0.06820493  0.66274881     0.03800
H261        H  0.31508754  0.06352688  0.63315920     0.08900
H262        H  0.35301015  0.06486204  0.67240637     0.07700
O263        O  0.47468363  0.22749485  0.73811692    -0.72300
O264        O  0.51029235  0.25117039  0.76597741    -0.73300
O265        O  0.51071736  0.22708978  0.73901794    -0.61900
O266        O  0.47416192  0.25167973  0.76496506    -0.70400
O267        O  0.47336373  0.23073385  0.78406405    -0.69900
O268        O  0.51016461  0.20604803  0.75802172    -0.61200
O269        O  0.50951903  0.23023857  0.78510002    -0.73700
O270        O  0.47402364  0.20631297  0.75696960    -0.72400
Cu271      Cu  0.49248079  0.24007980  0.75138265     1.04600
Cu272      Cu  0.49172173  0.21758047  0.77171552     1.04300
C273        C  0.46886509  0.21308881  0.74303643     0.93900
C274        C  0.51551429  0.24449145  0.77992875     0.93000
C275        C  0.51618818  0.21268787  0.74436516     0.85100
C276        C  0.46806082  0.24519334  0.77864087     0.91400
O277        O  0.25726536  0.23753153  0.47866430    -0.72300
O278        O  0.23160624  0.26257795  0.51512483    -0.73300
O279        O  0.25685889  0.23684539  0.51500155    -0.61900
O280        O  0.23192809  0.26330710  0.47885509    -0.70400
O281        O  0.21182717  0.24342989  0.47829400    -0.69900
O282        O  0.23675252  0.21696999  0.51442623    -0.61200
O283        O  0.21140574  0.24280138  0.51446244    -0.73700
O284        O  0.23727804  0.21753555  0.47821547    -0.72400
Cu285      Cu  0.24512625  0.25074937  0.49691575     1.04600
Cu286      Cu  0.22361902  0.22948578  0.49632059     1.04300
C287        C  0.25135485  0.22359402  0.47269864     0.93900
C288        C  0.21745976  0.25663065  0.52055124     0.93000
C289        C  0.25068486  0.22278232  0.52047818     0.85100
C290        C  0.21789858  0.25759084  0.47294005     0.91400
N291        N  0.61691891  0.32229956  0.86085675    -0.26700
N292        N  0.61884283  0.33265532  0.84766392    -0.34500
C293        C  0.60862883  0.32757859  0.83493124     0.01700
C294        C  0.59981108  0.31327289  0.84028195     0.07700
C295        C  0.60538004  0.31025848  0.85682339    -0.05400
H296        H  0.60781335  0.33381362  0.82261891     0.08300
H297        H  0.60132114  0.30015815  0.86533329     0.09500
Cu298      Cu  0.63562320  0.35289570  0.84720030     0.44200
Cu299      Cu  0.62996461  0.32577336  0.88366247     0.42000
Cu300      Cu  0.66159587  0.36033048  0.88414023     0.43900
N301        N  0.65456431  0.37109521  0.84809692    -0.34100
N302        N  0.66446163  0.37365689  0.86146850    -0.28300
C303        C  0.67589255  0.38586109  0.85761655    -0.04400
C304        C  0.67295914  0.39120789  0.84100419     0.07800
C305        C  0.65933447  0.38158784  0.83540957     0.01600
H306        H  0.68559747  0.39042167  0.86625957     0.09200
H307        H  0.65347483  0.38193081  0.82291955     0.08300
N308        N  0.65439002  0.34632592  0.90540751    -0.35500
N309        N  0.64295621  0.33393761  0.90526755    -0.27700
C310        C  0.64051905  0.32841022  0.92134701    -0.02900
C311        C  0.65090185  0.33772968  0.93211101     0.05700
C312        C  0.65954958  0.34894341  0.92155167     0.03800
H313        H  0.63153972  0.31857854  0.92495522     0.08900
H314        H  0.66854585  0.35866402  0.92531969     0.07700
N315        N  0.67835660  0.36699599  0.12930463    -0.26700
N316        N  0.66949963  0.36268750  0.14299899    -0.34500
C317        C  0.67366705  0.37304988  0.15593080     0.01700
C318        C  0.68574949  0.38451440  0.15019360     0.07700
C319        C  0.68850673  0.38027420  0.13323046    -0.05400
H320        H  0.66790510  0.37255807  0.16846978     0.08300
H321        H  0.69672448  0.38676024  0.12422742     0.09500
Cu322      Cu  0.65101348  0.34400047  0.14345590     0.44200
Cu323      Cu  0.67456925  0.35550641  0.10571065     0.42000
Cu324      Cu  0.64013994  0.32358987  0.10426129     0.43900
N325        N  0.63202192  0.32593212  0.14156521    -0.34100
N326        N  0.62803632  0.31813496  0.12719572    -0.28300
C327        C  0.61511833  0.30725030  0.13022731    -0.04400
C328        C  0.61075033  0.30839723  0.14733651     0.07800
C329        C  0.62172773  0.32037925  0.15408784     0.01600
H330        H  0.60917070  0.29936716  0.12062332     0.09200
H331        H  0.62219835  0.32480924  0.16714355     0.08300
N332        N  0.65352187  0.33235937  0.08311734    -0.35500
N333        N  0.66598989  0.34369799  0.08358546    -0.27700
C334        C  0.67109985  0.34705389  0.06751962    -0.02900
C335        C  0.66134897  0.33744936  0.05641590     0.05700
C336        C  0.65038051  0.32825671  0.06677761     0.03800
H337        H  0.68079952  0.35626702  0.06416436     0.08900
H338        H  0.64048104  0.31956507  0.06278479     0.07700
O339        O  0.75223551  0.52246284  0.20617569    -0.72300
O340        O  0.77831654  0.48567194  0.23102421    -0.73300
O341        O  0.75362483  0.48632808  0.20443296    -0.61900
O342        O  0.77712971  0.52166408  0.23245227    -0.70400
O343        O  0.75651179  0.52039087  0.25179853    -0.69900
O344        O  0.73305742  0.48418656  0.22375718    -0.61200
O345        O  0.75770076  0.48415038  0.25035395    -0.73700
O346        O  0.73159082  0.52039949  0.22542420    -0.72400
Cu347      Cu  0.76601804  0.50408141  0.21784276     1.04600
Cu348      Cu  0.74397803  0.50222954  0.23851153     1.04300
C349        C  0.73774954  0.52720077  0.21194030     0.93900
C350        C  0.77214123  0.47922932  0.24471174     0.93000
C351        C  0.73975140  0.47959539  0.20960200     0.85100
C352        C  0.77063251  0.52661158  0.24652700     0.91400
N353        N  0.62106666  0.67465137  0.86406300    -0.26700
N354        N  0.62381432  0.66576343  0.85000370    -0.34500
C355        C  0.61407602  0.67214402  0.83735437     0.01700
C356        C  0.60481570  0.68577293  0.84372394     0.07700
C357        C  0.60961250  0.68697732  0.86068618    -0.05400
H358        H  0.61396090  0.66734573  0.82442565     0.08300
H359        H  0.60507847  0.69612360  0.86994941     0.09500
Cu360      Cu  0.64132804  0.64589752  0.84844684     0.44200
Cu361      Cu  0.63303381  0.66980877  0.88729307     0.42000
Cu362      Cu  0.66658182  0.63845596  0.88666934     0.43900
N363        N  0.66111285  0.62829067  0.84988458    -0.34100
N364        N  0.67052134  0.62589730  0.86368235    -0.28300
C365        C  0.68249573  0.61410177  0.86030954    -0.04400
C366        C  0.68052440  0.60873131  0.84361464     0.07800
C367        C  0.66681979  0.61800317  0.83739827     0.01600
H368        H  0.69188023  0.60969069  0.86941347     0.09200
H369        H  0.66146002  0.61747254  0.82469791     0.08300
N370        N  0.65943559  0.65157021  0.90855010    -0.35500
N371        N  0.64699278  0.66292419  0.90883254    -0.27700
C372        C  0.64508236  0.66866126  0.92490077    -0.02900
C373        C  0.65691196  0.66053847  0.93526372     0.05700
C374        C  0.66579696  0.64981153  0.92441517     0.03800
H375        H  0.63565029  0.67794351  0.92873367     0.08900
H376        H  0.67595610  0.64112948  0.92783548     0.07700
N377        N  0.67272182  0.63892449  0.13106734    -0.26700
N378        N  0.66269154  0.64035184  0.14456417    -0.34500
C379        C  0.66754059  0.62883961  0.15640064     0.01700
C380        C  0.68135102  0.61984279  0.15007601     0.07700
C381        C  0.68429207  0.62662777  0.13403178    -0.05400
H382        H  0.66150679  0.62723311  0.16871724     0.08300
H383        H  0.69392061  0.62267851  0.12498509     0.09500
Cu384      Cu  0.64295132  0.65797340  0.14632896     0.44200
Cu385      Cu  0.66977758  0.65271052  0.10857494     0.42000
Cu386      Cu  0.63640736  0.68378333  0.10820518     0.43900
N387        N  0.62475758  0.67718250  0.14442570    -0.34100
N388        N  0.62269109  0.68677338  0.13066158    -0.28300
C389        C  0.61004540  0.69798316  0.13348999    -0.04400
C390        C  0.60374033  0.69529287  0.14976823     0.07800
C391        C  0.61338561  0.68199909  0.15634458     0.01600
H392        H  0.60559531  0.70723189  0.12423334     0.09200
H393        H  0.61227082  0.67623612  0.16885766     0.08300
N394        N  0.65002171  0.67705731  0.08651169    -0.35500
N395        N  0.66240466  0.66564783  0.08660474    -0.27700
C396        C  0.66762809  0.66297808  0.07044872    -0.02900
C397        C  0.65798723  0.67316057  0.05963619     0.05700
C398        C  0.64701135  0.68194540  0.07032065     0.03800
H399        H  0.67713279  0.65368688  0.06681727     0.08900
H400        H  0.63702100  0.69068245  0.06655508     0.07700
N401        N  0.37835024  0.66551582  0.86202530    -0.26700
N402        N  0.37699733  0.65522038  0.84876592    -0.34500
C403        C  0.38672076  0.66113468  0.83596618     0.01700
C404        C  0.39461417  0.67592767  0.84129949     0.07700
C405        C  0.38901658  0.67836414  0.85792292    -0.05400
H406        H  0.38775664  0.65516849  0.82357624     0.08300
H407        H  0.39244109  0.68864978  0.86642190     0.09500
Cu408      Cu  0.36135492  0.63408658  0.84783505     0.44200
Cu409      Cu  0.36553657  0.66119175  0.88494683     0.42000
Cu410      Cu  0.33590957  0.62490183  0.88439431     0.43900
N411        N  0.34235658  0.61589876  0.84775843    -0.34100
N412        N  0.33257770  0.61270090  0.86110755    -0.28300
C413        C  0.32040767  0.60152628  0.85651425    -0.04400
C414        C  0.32270624  0.59752375  0.83942981     0.07800
C415        C  0.33679656  0.60682546  0.83435664     0.01600
H416        H  0.31043186  0.59698429  0.86489418     0.09200
H417        H  0.34221719  0.60751044  0.82167351     0.08300
N418        N  0.34122901  0.63952262  0.90585354    -0.35500
N419        N  0.35181305  0.65265182  0.90610824    -0.27700
C420        C  0.35237547  0.65896263  0.92207125    -0.02900
C421        C  0.34163619  0.64936159  0.93235244     0.05700
C422        C  0.33479394  0.63718657  0.92160280     0.03800
H423        H  0.36017106  0.66965234  0.92589649     0.08900
H424        H  0.32589675  0.62720475  0.92499416     0.07700
N425        N  0.35766722  0.68197577  0.12966744    -0.26700
N426        N  0.35385137  0.67258643  0.14318605    -0.34500
C427        C  0.36405837  0.67701681  0.15620009     0.01700
C428        C  0.37479361  0.68989096  0.15069600     0.07700
C429        C  0.37036139  0.69274347  0.13379562    -0.05400
H430        H  0.36368564  0.67123397  0.16875186     0.08300
H431        H  0.37617796  0.70167762  0.12501029     0.09500
Cu432      Cu  0.33502197  0.65408795  0.14351856     0.44200
Cu433      Cu  0.34624920  0.67867650  0.10593130     0.42000
Cu434      Cu  0.31379389  0.64554020  0.10371962     0.43900
N435        N  0.31529601  0.63672976  0.14112963    -0.34100
N436        N  0.30741976  0.63360195  0.12657241    -0.28300
C437        C  0.29548378  0.62157293  0.12924841    -0.04400
C438        C  0.29584970  0.61693608  0.14632690     0.07800
C439        C  0.30857749  0.62683598  0.15345745     0.01600
H440        H  0.28728604  0.61645550  0.11942839     0.09200
H441        H  0.31284184  0.62674861  0.16657978     0.08300
N442        N  0.32364898  0.65810433  0.08249427    -0.35500
N443        N  0.33531525  0.67023793  0.08327419    -0.27700
C444        C  0.33979900  0.67472475  0.06728960    -0.02900
C445        C  0.33059415  0.66490421  0.05588265     0.05700
C446        C  0.32043501  0.65455777  0.06601365     0.03800
H447        H  0.34958897  0.68394326  0.06422912     0.08900
H448        H  0.31179953  0.64470113  0.06178974     0.07700
O449        O  0.46853629  0.76967711  0.25144622    -0.72300
O450        O  0.50543937  0.74456040  0.22674908    -0.73300
O451        O  0.50453934  0.76905010  0.25334747    -0.61900
O452        O  0.46932471  0.74533546  0.22479429    -0.70400
O453        O  0.47088021  0.76613484  0.20557802    -0.69900
O454        O  0.50596047  0.78998532  0.23426954    -0.61200
O455        O  0.50704863  0.76533956  0.20751467    -0.73700
O456        O  0.46984442  0.79056139  0.23229641    -0.72400
Cu457      Cu  0.48692714  0.75643134  0.23973022     1.04600
Cu458      Cu  0.48849904  0.77873920  0.21923035     1.04300
C459        C  0.46335695  0.78406431  0.24580461     0.93900
C460        C  0.51205973  0.75089877  0.21325854     0.93000
C461        C  0.51070677  0.78331061  0.24839555     0.85100
C462        C  0.46447921  0.75204604  0.21071821     0.91400
N463        N  0.31256620  0.36941713  0.85892445    -0.26700
N464        N  0.32172817  0.36746382  0.84488585    -0.34500
C465        C  0.31554742  0.37773794  0.83262844     0.01700
C466        C  0.30180675  0.38663028  0.83917149     0.07700
C467        C  0.30023160  0.38099041  0.85587608    -0.05400
H468        H  0.32084430  0.37872071  0.81991884     0.08300
H469        H  0.29109109  0.38529074  0.86526241     0.09500
Cu470      Cu  0.34259026  0.35141317  0.84249007     0.44200
Cu471      Cu  0.31799367  0.35711812  0.88188438     0.42000
Cu472      Cu  0.35462512  0.32885860  0.88014019     0.43900
N473        N  0.36258339  0.33412188  0.84301923    -0.34100
N474        N  0.36682302  0.32561120  0.85695591    -0.28300
C475        C  0.37965629  0.31487358  0.85330164    -0.04400
C476        C  0.38374846  0.31672593  0.83620044     0.07800
C477        C  0.37269247  0.32909968  0.83009342     0.01600
H478        H  0.38545068  0.30627572  0.86242899     0.09200
H479        H  0.37177455  0.33381667  0.81713350     0.08300
N480        N  0.34138872  0.33433540  0.90231038    -0.35500
N481        N  0.32809051  0.34465269  0.90310902    -0.27700
C482        C  0.32344468  0.34637131  0.91956784    -0.02900
C483        C  0.33436135  0.33665188  0.92956713     0.05700
C484        C  0.34549500  0.32916526  0.91814933     0.03800
H485        H  0.31326414  0.35456821  0.92393316     0.08900
H486        H  0.35628680  0.32112191  0.92116254     0.07700
N487        N  0.37184251  0.32564527  0.12594812    -0.26700
N488        N  0.36825160  0.33398085  0.14015010    -0.34500
C489        C  0.37725874  0.32724357  0.15308863     0.01700
C490        C  0.38699092  0.31396703  0.14682179     0.07700
C491        C  0.38320728  0.31326689  0.12954902    -0.05400
H492        H  0.37688362  0.33185356  0.16608489     0.08300
H493        H  0.38864186  0.30473195  0.12018980     0.09500
Cu494      Cu  0.35166928  0.35444747  0.14160259     0.44200
Cu495      Cu  0.36175135  0.33224839  0.10223839     0.42000
Cu496      Cu  0.33193356  0.36812160  0.10267985     0.43900
N497        N  0.33425941  0.37423784  0.14048817    -0.34100
N498        N  0.32667626  0.37914488  0.12624490    -0.28300
C499        C  0.31573405  0.39186644  0.12987443    -0.04400
C500        C  0.31659160  0.39516384  0.14723909     0.07800
C501        C  0.32850441  0.38375920  0.15351623     0.01600
H502        H  0.30784516  0.39828698  0.12053870     0.09200
H503        H  0.33255471  0.38231001  0.16663785     0.08300
N504        N  0.33934575  0.35516645  0.08073546    -0.35500
N505        N  0.35013991  0.34220442  0.08046541    -0.27700
C506        C  0.35200862  0.33689107  0.06422313    -0.02900
C507        C  0.34186918  0.34696773  0.05378488     0.05700
C508        C  0.33406299  0.35839108  0.06472686     0.03800
H509        H  0.36006291  0.32639301  0.06036248     0.08900
H510        H  0.32511785  0.36833468  0.06133106     0.07700
N511        N  0.85879010  0.32386856  0.62193539    -0.26700
N512        N  0.84517838  0.33316421  0.62536014    -0.34500
C513        C  0.83261792  0.32887936  0.61452940     0.01700
C514        C  0.83860803  0.31620550  0.60383503     0.07700
C515        C  0.85524223  0.31333241  0.60892042    -0.05400
H516        H  0.82006362  0.33456581  0.61448335     0.08300
H517        H  0.86424298  0.30447087  0.60340828     0.09500
Cu518      Cu  0.84446950  0.35118610  0.64460818     0.44200
Cu519      Cu  0.88180591  0.32650472  0.63454895     0.42000
Cu520      Cu  0.88308639  0.35636678  0.66974326     0.43900
N521        N  0.84674577  0.36799979  0.66481484    -0.34100
N522        N  0.86062389  0.36977587  0.67418958    -0.28300
C523        C  0.85769793  0.38167516  0.68620575    -0.04400
C524        C  0.84120775  0.38766889  0.68426430     0.07800
C525        C  0.83467861  0.37869217  0.67056481     0.01600
H526        H  0.86694327  0.38573122  0.69557951     0.09200
H527        H  0.82206893  0.37976269  0.66513182     0.08300
N528        N  0.90435648  0.34326777  0.66077264    -0.35500
N529        N  0.90381890  0.33252282  0.64781133    -0.27700
C530        C  0.91969290  0.32712849  0.64432089    -0.02900
C531        C  0.93083263  0.33480414  0.65561567     0.05700
C532        C  0.92063658  0.34493385  0.66590575     0.03800
H533        H  0.92290838  0.31854278  0.63402627     0.08900
H534        H  0.92476324  0.35332715  0.67601840     0.07700
N535        N  0.12696130  0.37043964  0.67378078    -0.26700
N536        N  0.14091291  0.36725798  0.66490977    -0.34500
C537        C  0.15324462  0.37810568  0.66970477     0.01700
C538        C  0.14675975  0.38867621  0.68223595     0.07700
C539        C  0.13006470  0.38342803  0.68451643    -0.05400
H540        H  0.16593015  0.37830616  0.66432963     0.08300
H541        H  0.12076543  0.38879618  0.69316381     0.09500
Cu542      Cu  0.14242909  0.34871261  0.64634211     0.44200
Cu543      Cu  0.10415583  0.35751860  0.67007078     0.42000
Cu544      Cu  0.10331133  0.32676866  0.63537619     0.43900
N545        N  0.14089306  0.33003968  0.62790645    -0.34100
N546        N  0.12673439  0.32190995  0.62382344    -0.28300
C547        C  0.13026045  0.31065017  0.61136207    -0.04400
C548        C  0.14742630  0.31185785  0.60740656     0.07800
C549        C  0.15373278  0.32428224  0.61816947     0.01600
H550        H  0.12097384  0.30233226  0.60551101     0.09200
H551        H  0.16669439  0.32886660  0.61892678     0.08300
N552        N  0.08188380  0.33382066  0.64943088    -0.35500
N553        N  0.08232507  0.34473605  0.66226290    -0.27700
C554        C  0.06646383  0.34678490  0.66842879    -0.02900
C555        C  0.05542954  0.33676677  0.65901151     0.05700
C556        C  0.06568228  0.32870696  0.64707211     0.03800
H557        H  0.06315483  0.35535252  0.67870893     0.08900
H558        H  0.06166890  0.31998161  0.63719844     0.07700
O559        O  0.20708235  0.48311449  0.75184661    -0.72300
O560        O  0.23224487  0.51804829  0.77955072    -0.73300
O561        O  0.20747845  0.51928149  0.75278237    -0.61900
O562        O  0.23162719  0.48185839  0.77847347    -0.70400
O563        O  0.25229687  0.48231155  0.75914372    -0.69900
O564        O  0.22811101  0.51939731  0.73341932    -0.61200
O565        O  0.25278937  0.51842129  0.76009561    -0.73700
O566        O  0.22790061  0.48316188  0.73267093    -0.72400
Cu567      Cu  0.21887166  0.50060461  0.76633551     1.04600
Cu568      Cu  0.24098441  0.50087938  0.74566508     1.04300
C569        C  0.21360025  0.47750886  0.73799897     0.93900
C570        C  0.24663683  0.52356169  0.77428641     0.93000
C571        C  0.21388339  0.52507360  0.73892059     0.85100
C572        C  0.24577537  0.47616132  0.77277497     0.91400
N573        N  0.86141891  0.67290840  0.62292620    -0.26700
N574        N  0.84790413  0.66304361  0.62485998    -0.34500
C575        C  0.83537587  0.66877586  0.61462153     0.01700
C576        C  0.84128135  0.68297902  0.60586232     0.07700
C577        C  0.85783600  0.68520616  0.61147390    -0.05400
H578        H  0.82285084  0.66311017  0.61380327     0.08300
H579        H  0.86667843  0.69502931  0.60751516     0.09500
Cu580      Cu  0.84696445  0.64262576  0.64180550     0.44200
Cu581      Cu  0.88421056  0.66916370  0.63577507     0.42000
Cu582      Cu  0.88476479  0.63508124  0.66713726     0.43900
N583        N  0.84859452  0.62413124  0.66077123    -0.34100
N584        N  0.86233460  0.62151601  0.67015881    -0.28300
C585        C  0.85902931  0.60924126  0.68172414    -0.04400
C586        C  0.84238901  0.60387226  0.67953715     0.07800
C587        C  0.83618004  0.61357528  0.66610512     0.01600
H588        H  0.86802319  0.60475599  0.69118275     0.09200
H589        H  0.82347362  0.61329900  0.66080150     0.08300
N590        N  0.90583243  0.64971784  0.66093174    -0.35500
N591        N  0.90573637  0.66204499  0.64938012    -0.27700
C592        C  0.92161548  0.66827319  0.64771959    -0.02900
C593        C  0.93218923  0.65944695  0.65880597     0.05700
C594        C  0.92172168  0.64782898  0.66699076     0.03800
H595        H  0.92519858  0.67825259  0.63885667     0.08900
H596        H  0.92544468  0.63832635  0.67631396     0.07700
N597        N  0.12716345  0.63094373  0.67141994    -0.26700
N598        N  0.14106026  0.63371899  0.66226849    -0.34500
C599        C  0.15332911  0.62287926  0.66743098     0.01700
C600        C  0.14687756  0.61282747  0.68049382     0.07700
C601        C  0.13027927  0.61834691  0.68269579    -0.05400
H602        H  0.16601234  0.62241848  0.66206320     0.08300
H603        H  0.12103040  0.61341714  0.69168047     0.09500
Cu604      Cu  0.14290529  0.65205604  0.64311362     0.44200
Cu605      Cu  0.10421750  0.64372058  0.66784507     0.42000
Cu606      Cu  0.10435778  0.67539272  0.63445573     0.43900
N607        N  0.14120743  0.67138171  0.62496665    -0.34100
N608        N  0.12705083  0.68000526  0.62200189    -0.28300
C609        C  0.12991499  0.69158604  0.60965763    -0.04400
C610        C  0.14668435  0.69016115  0.60449872     0.07800
C611        C  0.15348755  0.67721882  0.61448801     0.01600
H612        H  0.12038883  0.70023120  0.60466195     0.09200
H613        H  0.16637133  0.67235017  0.61417625     0.08300
N614        N  0.08283300  0.66865583  0.64798036    -0.35500
N615        N  0.08262871  0.65714854  0.66033721    -0.27700
C616        C  0.06651575  0.65529793  0.66592733    -0.02900
C617        C  0.05613363  0.66615604  0.65655374     0.05700
C618        C  0.06695107  0.67441412  0.64533627     0.03800
H619        H  0.06262083  0.64631197  0.67567833     0.08900
H620        H  0.06350606  0.68362034  0.63561588     0.07700
O621        O  0.22833949  0.78854393  0.47198256    -0.72300
O622        O  0.20429667  0.76273132  0.50944078    -0.73300
O623        O  0.23054982  0.78785687  0.50818910    -0.61900
O624        O  0.20201274  0.76355836  0.47327657    -0.70400
O625        O  0.22131353  0.74290741  0.47205504    -0.69900
O626        O  0.25002462  0.76741774  0.50636175    -0.61200
O627        O  0.22402202  0.74249302  0.50805859    -0.73700
O628        O  0.24739334  0.76768601  0.47038420    -0.72400
Cu629      Cu  0.21559861  0.77641367  0.49078343     1.04600
Cu630      Cu  0.23634478  0.75443443  0.48916006     1.04300
C631        C  0.24170887  0.78207395  0.46528631     0.93900
C632        C  0.21042530  0.74851494  0.51462639     0.93000
C633        C  0.24485326  0.78149146  0.51269084     0.85100
C634        C  0.20714832  0.74933495  0.46724172     0.91400
N635        N  0.85773702  0.63133693  0.31421748    -0.26700
N636        N  0.84382833  0.63390227  0.32337267    -0.34500
C637        C  0.83141022  0.62357203  0.31774609     0.01700
C638        C  0.83776096  0.61397783  0.30438332     0.07700
C639        C  0.85448717  0.61928405  0.30245573    -0.05400
H640        H  0.81876168  0.62299142  0.32318282     0.08300
H641        H  0.86374091  0.61447803  0.29343322     0.09500
Cu642      Cu  0.84226171  0.65083392  0.34352210     0.44200
Cu643      Cu  0.88071034  0.64367528  0.31896308     0.42000
Cu644      Cu  0.87981617  0.67472866  0.35376753     0.43900
N645        N  0.84314651  0.66858522  0.36300081    -0.34100
N646        N  0.85677976  0.67773869  0.36665302    -0.28300
C647        C  0.85307304  0.68817948  0.37978665    -0.04400
C648        C  0.83630652  0.68535425  0.38464612     0.07800
C649        C  0.83047464  0.67282994  0.37370884     0.01600
H650        H  0.86198369  0.69700692  0.38546932     0.09200
H651        H  0.81788746  0.66723788  0.37346013     0.08300
N652        N  0.90174129  0.66770307  0.34051086    -0.35500
N653        N  0.90211540  0.65651233  0.32790570    -0.27700
C654        C  0.91838315  0.65424431  0.32292698    -0.02900
C655        C  0.92877079  0.66443768  0.33291612     0.05700
C656        C  0.91774496  0.67278690  0.34388053     0.03800
H657        H  0.92235934  0.64539861  0.31313502     0.08900
H658        H  0.92113163  0.68159053  0.35392494     0.07700
N659        N  0.12346476  0.66979987  0.36946127    -0.26700
N660        N  0.13668921  0.65963965  0.36717161    -0.34500
C661        C  0.14954386  0.66470972  0.37721585     0.01700
C662        C  0.14427743  0.67884144  0.38628664     0.07700
C663        C  0.12763961  0.68175275  0.38105818    -0.05400
H664        H  0.16192683  0.65867055  0.37763950     0.08300
H665        H  0.11919455  0.69177086  0.38533611     0.09500
Cu666      Cu  0.13723995  0.63990097  0.34989054     0.44200
Cu667      Cu  0.10059425  0.66643227  0.35641328     0.42000
Cu668      Cu  0.10083574  0.63325197  0.32317168     0.43900
N669        N  0.13673454  0.62232882  0.33040764    -0.34100
N670        N  0.12354310  0.61995439  0.32024309    -0.28300
C671        C  0.12763888  0.60807364  0.30855387    -0.04400
C672        C  0.14421720  0.60276866  0.31160887     0.07800
C673        C  0.14952705  0.61207863  0.32556490     0.01600
H674        H  0.11917821  0.60367203  0.29861240     0.09200
H675        H  0.16187272  0.61163197  0.33166746     0.08300
N676        N  0.07963078  0.64765053  0.32987843    -0.35500
N677        N  0.07944629  0.65943877  0.34193867    -0.27700
C678        C  0.06348769  0.66552871  0.34349972    -0.02900
C679        C  0.05314055  0.65722844  0.33185191     0.05700
C680        C  0.06384454  0.64602904  0.32343108     0.03800
H681        H  0.05968834  0.67509772  0.35265876     0.08900
H682        H  0.06034208  0.63698460  0.31364382     0.07700
N683        N  0.86308507  0.37642111  0.31153944    -0.26700
N684        N  0.84943717  0.37368629  0.32103361    -0.34500
C685        C  0.83683660  0.38407630  0.31582889     0.01700
C686        C  0.84279301  0.39387981  0.30236146     0.07700
C687        C  0.85950088  0.38866817  0.29999141    -0.05400
H688        H  0.82425778  0.38436791  0.32144478     0.08300
H689        H  0.86842429  0.39344624  0.29060291     0.09500
Cu690      Cu  0.84838156  0.35571084  0.34040524     0.44200
Cu691      Cu  0.88590797  0.36335368  0.31511447     0.42000
Cu692      Cu  0.88604158  0.33044493  0.34826787     0.43900
N693        N  0.84950420  0.33609079  0.35809633    -0.34100
N694        N  0.86314586  0.32660916  0.36087766    -0.28300
C695        C  0.85950550  0.31491018  0.37295676    -0.04400
C696        C  0.84276075  0.31721907  0.37801875     0.07800
C697        C  0.83685375  0.33075049  0.36832243     0.01600
H698        H  0.86844764  0.30556694  0.37776894     0.09200
H699        H  0.82425773  0.33633477  0.36862558     0.08300
N700        N  0.90738424  0.33766236  0.33442927    -0.35500
N701        N  0.90736089  0.34946146  0.32232007    -0.27700
C702        C  0.92337500  0.35154102  0.31655595    -0.02900
C703        C  0.93399801  0.34062389  0.32552906     0.05700
C704        C  0.92338661  0.33199646  0.33672322     0.03800
H705        H  0.92708470  0.36078327  0.30696919     0.08900
H706        H  0.92703024  0.32261400  0.34619207     0.07700
N707        N  0.12919084  0.32499307  0.36898411    -0.26700
N708        N  0.14340219  0.33304483  0.36485131    -0.34500
C709        C  0.15583069  0.32814462  0.37563276     0.01700
C710        C  0.14912020  0.31636414  0.38702062     0.07700
C711        C  0.13221116  0.31468767  0.38239632    -0.05400
H712        H  0.16886438  0.33254416  0.37494270     0.08300
H713        H  0.12278452  0.30649014  0.38826174     0.09500
Cu714      Cu  0.14533640  0.34970868  0.34421780     0.44200
Cu715      Cu  0.10632390  0.32814123  0.35616665     0.42000
Cu716      Cu  0.10666957  0.35567974  0.31923555     0.43900
N717        N  0.14380149  0.36516111  0.32262270    -0.34100
N718        N  0.12979034  0.36712186  0.31346571    -0.28300
C719        C  0.13297694  0.37794632  0.30050396    -0.04400
C720        C  0.14977909  0.38312869  0.30153948     0.07800
C721        C  0.15625922  0.37475518  0.31573227     0.01600
H722        H  0.12362384  0.38197482  0.29119284     0.09200
H723        H  0.16903789  0.37562872  0.32079084     0.08300
N724        N  0.08486912  0.34383558  0.32839651    -0.35500
N725        N  0.08478480  0.33374365  0.34193978    -0.27700
C726        C  0.06872241  0.32871904  0.34509587    -0.02900
C727        C  0.05813952  0.33603631  0.33299227     0.05700
C728        C  0.06883961  0.34552017  0.32257488     0.03800
H729        H  0.06499462  0.32067626  0.35570476     0.08900
H730        H  0.06524782  0.35341209  0.31181266     0.07700
O731        O  0.24574858  0.51971944  0.22334556    -0.72300
O732        O  0.22476967  0.47910977  0.24603662    -0.73300
O733        O  0.25008314  0.48364511  0.22061482    -0.61900
O734        O  0.22036225  0.51500122  0.24839960    -0.70400
O735        O  0.20069109  0.51415838  0.22809306    -0.69900
O736        O  0.23008391  0.48270442  0.20064521    -0.61200
O737        O  0.20463694  0.47812115  0.22620361    -0.73700
O738        O  0.22628322  0.51868165  0.20284413    -0.72400
Cu739      Cu  0.23593416  0.49938187  0.23528765     1.04600
Cu740      Cu  0.21473110  0.49836918  0.21373347     1.04300
C741        C  0.23933028  0.52569377  0.20961057     0.93900
C742        C  0.21139311  0.47225368  0.23987344     0.93000
C743        C  0.24466894  0.47816661  0.20624269     0.85100
C744        C  0.20590504  0.51965142  0.24249333     0.91400
C745        C  0.16683675  0.41602173  0.26922965     0.16500
C746        C  0.16902333  0.42795888  0.25602256    -0.32500
C747        C  0.18408527  0.43758744  0.25593625     0.20900
C748        C  0.19646333  0.43528857  0.26835433     0.03100
C749        C  0.19438713  0.42319613  0.28138778    -0.22200
C750        C  0.17927773  0.41370649  0.28156989     0.12300
S751        S  0.14910290  0.40377551  0.27219496    -0.05900
C752        C  0.15852916  0.39547942  0.29029198    -0.09300
C753        C  0.17464345  0.40187249  0.29361675    -0.26000
S754        S  0.21344233  0.44869512  0.26656099    -0.03100
C755        C  0.20380429  0.45760548  0.24890341    -0.16600
C756        C  0.18828167  0.45033830  0.24463269    -0.14600
H757        H  0.15925867  0.42991571  0.24646169     0.20800
H758        H  0.20397613  0.42151891  0.29117944     0.16800
H759        H  0.18242235  0.39838178  0.30448209     0.19300
H760        H  0.18031700  0.45443965  0.23411245     0.12700
C761        C  0.98242790  0.34321029  0.31869081     0.16500
C762        C  0.99901236  0.34741106  0.31356051    -0.32500
C763        C  0.01256246  0.34045093  0.32294011     0.20900
C764        C  0.00974067  0.32969482  0.33673646     0.03100
C765        C  0.99316495  0.32538124  0.34177657    -0.22200
C766        C  0.97961817  0.33242818  0.33246722     0.12300
S767        S  0.96427786  0.35092646  0.30948935    -0.05900
C768        C  0.95274255  0.33959348  0.32442713    -0.09300
C769        C  0.96262151  0.33021865  0.33575654    -0.26000
S770        S  0.02784827  0.32295971  0.34672559    -0.03100
C771        C  0.03940080  0.33480142  0.33220129    -0.16600
C772        C  0.02955895  0.34339256  0.32023937    -0.14600
H773        H  0.00125266  0.35593975  0.30289088     0.20800
H774        H  0.99092038  0.31709487  0.35263462     0.16800
H775        H  0.95769426  0.32252492  0.34613734     0.19300
H776        H  0.03451312  0.35156149  0.31024015     0.12700
C777        C  0.17539051  0.57076195  0.29175615     0.16500
C778        C  0.18921770  0.56015250  0.28794531    -0.32500
C779        C  0.18817843  0.55020478  0.27316297     0.20900
C780        C  0.17402791  0.55081980  0.26259526     0.03100
C781        C  0.16016579  0.56141249  0.26643400    -0.22200
C782        C  0.16118364  0.57132868  0.28126488     0.12300
S783        S  0.17427715  0.58384232  0.30904043    -0.05900
C784        C  0.15438982  0.59012316  0.30216554    -0.09300
C785        C  0.14904483  0.58240779  0.28719544    -0.26000
S786        S  0.17538269  0.53794693  0.24512353    -0.03100
C787        C  0.19520829  0.53163303  0.25216590    -0.16600
C788        C  0.20035962  0.53918401  0.26727247    -0.14600
H789        H  0.20031752  0.55969582  0.29613147     0.20800
H790        H  0.14909488  0.56192137  0.25821355     0.16800
H791        H  0.13699437  0.58480968  0.28093016     0.19300
H792        H  0.21244889  0.53687924  0.27351535     0.12700
C793        C  0.97711952  0.66992914  0.33890501     0.16500
C794        C  0.99349141  0.67375587  0.34489691    -0.32500
C795        C  0.00739363  0.66668957  0.33616978     0.20900
C796        C  0.00512126  0.65642550  0.32197712     0.03100
C797        C  0.98873821  0.65274609  0.31586497    -0.22200
C798        C  0.97481297  0.65963727  0.32473809     0.12300
S799        S  0.95864354  0.67665169  0.34818592    -0.05900
C800        C  0.94758781  0.66538380  0.33292087    -0.09300
C801        C  0.95788783  0.65699041  0.32122170    -0.26000
S802        S  0.02360384  0.64847892  0.31367841    -0.03100
C803        C  0.03452751  0.65894735  0.32961138    -0.16600
C804        C  0.02422780  0.66828447  0.34053906    -0.14600
H805        H  0.99530200  0.68162259  0.35608629     0.20800
H806        H  0.98691502  0.64456727  0.30490588     0.16800
H807        H  0.95328347  0.64919236  0.31082627     0.19300
H808        H  0.02872526  0.67545737  0.35142209     0.12700
C809        C  0.17585036  0.69941695  0.41740708     0.16500
C810        C  0.18976800  0.70337827  0.42780917    -0.32500
C811        C  0.18916801  0.71871098  0.43690647     0.20900
C812        C  0.17536595  0.72968737  0.43568785     0.03100
C813        C  0.16140760  0.72570618  0.42527548    -0.22200
C814        C  0.16197047  0.71029963  0.41621609     0.12300
S815        S  0.17424798  0.68146790  0.40532519    -0.05900
C816        C  0.15459508  0.68858960  0.39858272    -0.09300
C817        C  0.14966877  0.70411335  0.40545997    -0.26000
S818        S  0.17713576  0.74763129  0.44787874    -0.03100
C819        C  0.19662395  0.74016885  0.45474327    -0.16600
C820        C  0.20139518  0.72465383  0.44779663    -0.14600
H821        H  0.20058949  0.69485998  0.42879098     0.20800
H822        H  0.15057434  0.73420717  0.42431970     0.16800
H823        H  0.13782905  0.71061008  0.40263832     0.19300
H824        H  0.21314571  0.71799598  0.45066133     0.12700
C825        C  0.16341241  0.71943901  0.56884989     0.16500
C826        C  0.16581075  0.73203922  0.55634871    -0.32500
C827        C  0.18113410  0.73178232  0.54715787     0.20900
C828        C  0.19344912  0.71944903  0.55017418     0.03100
C829        C  0.19107481  0.70690109  0.56270619    -0.22200
C830        C  0.17582586  0.70724366  0.57198558     0.12300
S831        S  0.14570031  0.71746475  0.58131689    -0.05900
C832        C  0.15518297  0.70008692  0.59095342    -0.09300
C833        C  0.17121654  0.69615380  0.58470448    -0.26000
S834        S  0.21106913  0.72118557  0.53757366    -0.03100
C835        C  0.20186380  0.73886081  0.52826194    -0.16600
C836        C  0.18592003  0.74301800  0.53460891    -0.14600
H837        H  0.15617742  0.74162841  0.55391429     0.20800
H838        H  0.20070280  0.69730371  0.56513336     0.16800
H839        H  0.17903809  0.68564277  0.58907726     0.19300
H840        H  0.17823249  0.75363903  0.53024166     0.12700
C841        C  0.98016125  0.65826010  0.66804403     0.16500
C842        C  0.99655051  0.65430708  0.67388888    -0.32500
C843        C  0.01035665  0.66175522  0.66533050     0.20900
C844        C  0.00794917  0.67285682  0.65172708     0.03100
C845        C  0.99154605  0.67698719  0.64601953    -0.22200
C846        C  0.97774458  0.66934068  0.65442596     0.12300
S847        S  0.96185652  0.64970661  0.67602955    -0.05900
C848        C  0.95077874  0.66107789  0.66079745    -0.09300
C849        C  0.96088660  0.67109542  0.65026148    -0.26000
S850        S  0.02634019  0.67996365  0.64259337    -0.03100
C851        C  0.03742960  0.66767371  0.65711006    -0.16600
C852        C  0.02725193  0.65878193  0.66853470    -0.14600
H853        H  0.99846952  0.64547387  0.68437124     0.20800
H854        H  0.98964158  0.68546827  0.63524805     0.16800
H855        H  0.95623826  0.67889326  0.63982918     0.19300
H856        H  0.03190735  0.65027354  0.67839306     0.12700
C857        C  0.16480835  0.57744679  0.70952537     0.16500
C858        C  0.16791612  0.56544953  0.72247339    -0.32500
C859        C  0.18335221  0.55644487  0.72192340     0.20900
C860        C  0.19508445  0.55911762  0.70895375     0.03100
C861        C  0.19195369  0.57107690  0.69598561    -0.22200
C862        C  0.17661475  0.58022656  0.69665125     0.12300
S863        S  0.14701867  0.58989692  0.70807435    -0.05900
C864        C  0.15565074  0.59912625  0.69003386    -0.09300
C865        C  0.17145221  0.59266737  0.68544622    -0.26000
S866        S  0.21304733  0.54694734  0.71057852    -0.03100
C867        C  0.20477089  0.53825468  0.72903813    -0.16600
C868        C  0.18884299  0.54448675  0.73350294    -0.14600
H869        H  0.15877350  0.56333714  0.73261303     0.20800
H870        H  0.20114777  0.57327379  0.68590990     0.16800
H871        H  0.17881143  0.59683868  0.67451831     0.19300
H872        H  0.18165863  0.54047606  0.74461423     0.12700
C873        C  0.16439555  0.42556036  0.70906288     0.16500
C874        C  0.16704620  0.43863316  0.72089408    -0.32500
C875        C  0.18300053  0.44661670  0.72094155     0.20900
C876        C  0.19574035  0.44193070  0.70961825     0.03100
C877        C  0.19309884  0.42881408  0.69778792    -0.22200
C878        C  0.17716132  0.42072885  0.69783952     0.12300
S879        S  0.14598417  0.41420705  0.70713752    -0.05900
C880        C  0.15558947  0.40266147  0.69112949    -0.09300
C881        C  0.17218768  0.40757189  0.68750966    -0.26000
S882        S  0.21418248  0.45326475  0.71175720    -0.03100
C883        C  0.20464698  0.46429520  0.72819665    -0.16600
C884        C  0.18805588  0.45938953  0.73166892    -0.14600
H885        H  0.15713437  0.44235265  0.72975234     0.20800
H886        H  0.20304243  0.42502401  0.68899734     0.16800
H887        H  0.18023566  0.40182569  0.67789135     0.19300
H888        H  0.18011543  0.46485999  0.74154910     0.12700
C889        C  0.97902833  0.32762833  0.65011030     0.16500
C890        C  0.99535191  0.32317870  0.64436659    -0.32500
C891        C  0.00936440  0.32953556  0.65344370     0.20900
C892        C  0.00722065  0.33972200  0.66771598     0.03100
C893        C  0.99088713  0.34403581  0.67356287    -0.22200
C894        C  0.97687350  0.33783806  0.66436533     0.12300
S895        S  0.96045834  0.32175301  0.64047316    -0.05900
C896        C  0.94959753  0.33323873  0.65574568    -0.09300
C897        C  0.96001311  0.34109425  0.66767929    -0.26000
S898        S  0.02583191  0.34669841  0.67652712    -0.03100
C899        C  0.03667715  0.33592661  0.66071734    -0.16600
C900        C  0.02622404  0.32722437  0.64942375    -0.14600
H901        H  0.99705873  0.31535341  0.63312891     0.20800
H902        H  0.98918306  0.35213566  0.68460373     0.16800
H903        H  0.95554126  0.34891260  0.67812717     0.19300
H904        H  0.03065968  0.31995140  0.63857333     0.12700
C905        C  0.29561835  0.42721253  0.17784725     0.16500
C906        C  0.29108018  0.43764747  0.19163572    -0.32500
C907        C  0.27652100  0.44788042  0.18985980     0.20900
C908        C  0.26688303  0.44768164  0.17503469     0.03100
C909        C  0.27151440  0.43737479  0.16119292    -0.22200
C910        C  0.28610331  0.42719557  0.16294496     0.12300
S911        S  0.31258504  0.41359516  0.17760856    -0.05900
C912        C  0.30693754  0.40793574  0.15712559    -0.09300
C913        C  0.29259256  0.41624041  0.15096350    -0.26000
S914        S  0.24937971  0.46057138  0.17558212    -0.03100
C915        C  0.25511608  0.46640112  0.19598273    -0.16600
C916        C  0.26989051  0.45869565  0.20190599    -0.14600
H917        H  0.29849751  0.43768967  0.20328263     0.20800
H918        H  0.26400749  0.43721294  0.14960481     0.16800
H919        H  0.28706040  0.41422505  0.13847861     0.19300
H920        H  0.27531774  0.46066712  0.21444918     0.12700
C921        C  0.27196541  0.42115887  0.82092199     0.16500
C922        C  0.25916263  0.43326371  0.81772362    -0.32500
C923        C  0.26036116  0.44288347  0.80260168     0.20900
C924        C  0.27367776  0.44051942  0.79121375     0.03100
C925        C  0.28634200  0.42837487  0.79434324    -0.22200
C926        C  0.28515710  0.41880729  0.80940543     0.12300
S927        S  0.27323212  0.40842308  0.83865772    -0.05900
C928        C  0.29168390  0.39983892  0.83034026    -0.09300
C929        C  0.29641791  0.40659661  0.81467904    -0.26000
S930        S  0.27315806  0.45355446  0.77378887    -0.03100
C931        C  0.25475377  0.46236220  0.78181814    -0.16600
C932        C  0.24937332  0.45541660  0.79722914    -0.14600
H933        H  0.24882818  0.43519188  0.82666597     0.20800
H934        H  0.29675352  0.42654092  0.78546507     0.16800
H935        H  0.30765667  0.40297249  0.80755700     0.19300
H936        H  0.23813049  0.45939908  0.80416426     0.12700
C937        C  0.33087678  0.34891077  0.00596596     0.16500
C938        C  0.32415336  0.35283719  0.98986471    -0.32500
C939        C  0.33050229  0.34385933  0.97579119     0.20900
C940        C  0.34296402  0.33146099  0.97765189     0.03100
C941        C  0.34958939  0.32740817  0.99380610    -0.22200
C942        C  0.34327386  0.33645856  0.00789967     0.12300
S943        S  0.32509441  0.35869053  0.02448787    -0.05900
C944        C  0.33945096  0.34584806  0.03510143    -0.09300
C945        C  0.34824103  0.33460841  0.02462145    -0.26000
S946        S  0.34948896  0.32260023  0.95886716    -0.03100
C947        C  0.33535412  0.33583195  0.94837796    -0.16600
C948        C  0.32598235  0.34632594  0.95906266    -0.14600
H949        H  0.31453943  0.36263228  0.98834636     0.20800
H950        H  0.35939000  0.31779769  0.99529176     0.16800
H951        H  0.35778634  0.32562166  0.02895133     0.19300
H952        H  0.31674269  0.35566940  0.95482153     0.12700
C953        C  0.26346495  0.56546930  0.19447639     0.16500
C954        C  0.27436365  0.57951709  0.19278587    -0.32500
C955        C  0.27595574  0.58693521  0.17655536     0.20900
C956        C  0.26694104  0.58080008  0.16266422     0.03100
C957        C  0.25579865  0.56693786  0.16442117    -0.22200
C958        C  0.25434112  0.55939357  0.18061603     0.12300
S959        S  0.26072922  0.55396740  0.21279285    -0.05900
C960        C  0.24715195  0.54080282  0.20166999    -0.09300
C961        C  0.24477942  0.54533230  0.18472262    -0.26000
S962        S  0.27122720  0.59110985  0.14391935    -0.03100
C963        C  0.28539898  0.60378923  0.15488122    -0.16600
C964        C  0.28650502  0.60016428  0.17219404    -0.14600
H965        H  0.28161952  0.58418255  0.20355045     0.20800
H966        H  0.24886387  0.56201037  0.15356319     0.16800
H967        H  0.23691223  0.53839802  0.17576935     0.19300
H968        H  0.29479449  0.60663003  0.18110362     0.12700
C969        C  0.43075513  0.73485439  0.17968935     0.16500
C970        C  0.41953351  0.73194675  0.16608629    -0.32500
C971        C  0.40869446  0.71776312  0.16722088     0.20900
C972        C  0.40895508  0.70701217  0.18130648     0.03100
C973        C  0.42021748  0.70987377  0.19486489    -0.22200
C974        C  0.43109971  0.72400100  0.19369623     0.12300
S975        S  0.44482413  0.75141631  0.18084788    -0.05900
C976        C  0.45131224  0.74358104  0.20037701    -0.09300
C977        C  0.44289902  0.72891182  0.20558700    -0.26000
S978        S  0.39466132  0.69066556  0.18038132    -0.03100
C979        C  0.38829783  0.69828110  0.16072443    -0.16600
C980        C  0.39690865  0.71277702  0.15532002    -0.14600
H981        H  0.41925156  0.74037559  0.15511322     0.20800
H982        H  0.42046462  0.70147229  0.20586087     0.16800
H983        H  0.44520309  0.72225871  0.21750066     0.19300
H984        H  0.39460522  0.71940174  0.14339827     0.12700
C985        C  0.29948957  0.56993858  0.80632817     0.16500
C986        C  0.29459522  0.56058881  0.79193523    -0.32500
C987        C  0.27885304  0.55218551  0.79250371     0.20900
C988        C  0.26835678  0.55313877  0.80670698     0.03100
C989        C  0.27325668  0.56250662  0.82111858    -0.22200
C990        C  0.28909065  0.57079138  0.82060977     0.12300
S991        S  0.31814033  0.58091580  0.80816451    -0.05900
C992        C  0.31200513  0.58660720  0.82849672    -0.09300
C993        C  0.29623347  0.58030116  0.83341355    -0.26000
S994        S  0.24986990  0.54179861  0.80490815    -0.03100
C995        C  0.25642360  0.53560481  0.78484866    -0.16600
C996        C  0.27208287  0.54215512  0.77993287    -0.14600
H997        H  0.30275795  0.55979959  0.78082033     0.20800
H998        H  0.26515935  0.56317929  0.83228813     0.16800
H999        H  0.29024528  0.58261790  0.84563755     0.19300
H1000       H  0.27831329  0.53951355  0.76789057     0.12700
C1001       C  0.34068816  0.66758888  0.00781519     0.16500
C1002       C  0.34742435  0.67122784  0.99161672    -0.32500
C1003       C  0.34152238  0.66156168  0.97777921     0.20900
C1004       C  0.32941077  0.64888467  0.97996003     0.03100
C1005       C  0.32262918  0.64529281  0.99613947    -0.22200
C1006       C  0.32857771  0.65491134  0.00997935     0.12300
S1007       S  0.34647505  0.67755263  0.02628350    -0.05900
C1008       C  0.33248720  0.66444628  0.03710079    -0.09300
C1009       C  0.32378666  0.65307900  0.02672616    -0.26000
S1010       S  0.32412254  0.63842075  0.96163875    -0.03100
C1011       C  0.33841896  0.65121353  0.95085573    -0.16600
C1012       C  0.34671685  0.66299013  0.96110238    -0.14600
H1013       H  0.35695359  0.68106017  0.98989844     0.20800
H1014       H  0.31323600  0.63533480  0.99788735     0.16800
H1015       H  0.31462281  0.64376962  0.03118066     0.19300
H1016       H  0.35617502  0.67200913  0.95666448     0.12700
C1017       C  0.56744214  0.72366926  0.16648376     0.16500
C1018       C  0.55522750  0.73643100  0.16922303    -0.32500
C1019       C  0.54518078  0.73522444  0.18399298     0.20900
C1020       C  0.54709080  0.72181028  0.19541793     0.03100
C1021       C  0.55929066  0.70906084  0.19267469    -0.22200
C1022       C  0.56945915  0.71037087  0.17801718     0.12300
S1023       S  0.58100288  0.72290112  0.14946790    -0.05900
C1024       C  0.58963767  0.70456457  0.15807203    -0.09300
C1025       C  0.58220514  0.69939761  0.17329624    -0.26000
S1026       S  0.53373712  0.72262628  0.21256988    -0.03100
C1027       C  0.52557892  0.74135687  0.20440670    -0.16600
C1028       C  0.53284780  0.74652091  0.18909609    -0.14600
H1029       H  0.55370885  0.74689999  0.16030217     0.20800
H1030       H  0.56088028  0.69864677  0.20164860     0.16800
H1031       H  0.58586664  0.68819163  0.18052328     0.19300
H1032       H  0.52934038  0.75793438  0.18211169     0.12700
C1033       C  0.66695422  0.66047878  0.98347400     0.16500
C1034       C  0.67319846  0.65731829  0.99998443    -0.32500
C1035       C  0.66505990  0.66548903  0.01369187     0.20900
C1036       C  0.65144152  0.67643267  0.01104027     0.03100
C1037       C  0.64527807  0.67965879  0.99455577    -0.22200
C1038       C  0.65329511  0.67138331  0.98088985     0.12300
S1039       S  0.67461077  0.65141212  0.96518563    -0.05900
C1040       C  0.65915442  0.66234469  0.95393593    -0.09300
C1041       C  0.64879924  0.67254378  0.96400956    -0.26000
S1042       S  0.64300942  0.68476247  0.02928055    -0.03100
C1043       C  0.65784871  0.67326859  0.04074519    -0.16600
C1044       C  0.66883308  0.66364378  0.03072806    -0.14600
H1045       H  0.68376019  0.64868222  0.00207426     0.20800
H1046       H  0.63453565  0.68807680  0.99249288     0.16800
H1047       H  0.63834823  0.68023519  0.95931330     0.19300
H1048       H  0.67884195  0.65549436  0.03561922     0.12700
C1049       C  0.78900723  0.56095498  0.27613114     0.16500
C1050       C  0.79195852  0.57335981  0.28862592    -0.32500
C1051       C  0.80753516  0.58210733  0.28808249     0.20900
C1052       C  0.81971128  0.57857757  0.27576808     0.03100
C1053       C  0.81676632  0.56618002  0.26328025    -0.22200
C1054       C  0.80113493  0.55755173  0.26372870     0.12300
S1055       S  0.77084230  0.54907791  0.27439630    -0.05900
C1056       C  0.77961756  0.53958496  0.25664471    -0.09300
C1057       C  0.79581120  0.54532749  0.25251088    -0.26000
S1058       S  0.83780100  0.59054186  0.27736332    -0.03100
C1059       C  0.82883605  0.60052551  0.29475717    -0.16600
C1060       C  0.81267654  0.59471580  0.29898220    -0.14600
H1061       H  0.78249332  0.57614620  0.29828330     0.20800
H1062       H  0.82619863  0.56345207  0.25357334     0.16800
H1063       H  0.80328560  0.54083626  0.24180340     0.19300
H1064       H  0.80507948  0.59937456  0.30951631     0.12700
C1065       C  0.79171908  0.44448182  0.27327174     0.16500
C1066       C  0.79502409  0.43190605  0.28558364    -0.32500
C1067       C  0.81114250  0.42420078  0.28545387     0.20900
C1068       C  0.82347017  0.42883654  0.27365231     0.03100
C1069       C  0.82015762  0.44140925  0.26131254    -0.22200
C1070       C  0.80399723  0.44906260  0.26138366     0.12300
S1071       S  0.77297228  0.45533529  0.27133117    -0.05900
C1072       C  0.78168186  0.46608498  0.25420154    -0.09300
C1073       C  0.79829339  0.46144084  0.25036535    -0.26000
S1074       S  0.84223641  0.41799027  0.27572450    -0.03100
C1075       C  0.83337346  0.40704167  0.29266122    -0.16600
C1076       C  0.81672721  0.41170342  0.29636316    -0.14600
H1077       H  0.78544406  0.42827403  0.29485288     0.20800
H1078       H  0.82973694  0.44503718  0.25204284     0.16800
H1079       H  0.80581453  0.46687766  0.24011637     0.19300
H1080       H  0.80907435  0.40629890  0.30651911     0.12700
C1081       C  0.70770314  0.56139245  0.19381301     0.16500
C1082       C  0.69430210  0.57277852  0.19061969    -0.32500
C1083       C  0.69629746  0.58445594  0.17717249     0.20900
C1084       C  0.71090689  0.58466601  0.16722460     0.03100
C1085       C  0.72431670  0.57328246  0.17042295    -0.22200
C1086       C  0.72237977  0.56169456  0.18396270     0.12300
S1087       S  0.70786166  0.54649165  0.20972668    -0.05900
C1088       C  0.72797121  0.54063827  0.20313825    -0.09300
C1089       C  0.73406626  0.54977915  0.18923400    -0.26000
S1090       S  0.71078237  0.59968389  0.15141154    -0.03100
C1091       C  0.69091142  0.60590653  0.15837923    -0.16600
C1092       C  0.68480362  0.59668301  0.17221978    -0.14600
H1093       H  0.68287366  0.57262333  0.19835819     0.20800
H1094       H  0.73577801  0.57349109  0.16273461     0.16800
H1095       H  0.74643118  0.54791969  0.18340198     0.19300
H1096       H  0.67256272  0.59870023  0.17824951     0.12700
C1097       C  0.72445692  0.44539980  0.17821457     0.16500
C1098       C  0.72261429  0.43391412  0.16465687    -0.32500
C1099       C  0.70980708  0.42152992  0.16600793     0.20900
C1100       C  0.69928990  0.42067150  0.18021147     0.03100
C1101       C  0.70101983  0.43225693  0.19368524    -0.22200
C1102       C  0.71385589  0.44460113  0.19236279     0.12300
S1103       S  0.73965294  0.46087552  0.17931677    -0.05900
C1104       C  0.73171850  0.46630716  0.19909096    -0.09300
C1105       C  0.71788164  0.45665678  0.20435787    -0.26000
S1106       S  0.68477410  0.40454923  0.17962158    -0.03100
C1107       C  0.69283769  0.39890415  0.15996206    -0.16600
C1108       C  0.70612842  0.40909277  0.15428437    -0.14600
H1109       H  0.73092342  0.43448738  0.15363259     0.20800
H1110       H  0.69284694  0.43154790  0.20480517     0.16800
H1111       H  0.71139288  0.45810035  0.21647078     0.19300
H1112       H  0.71279900  0.40745714  0.14230259     0.12700
C1113       C  0.64785364  0.33062505  0.98050189     0.16500
C1114       C  0.64339266  0.32551683  0.99704050    -0.32500
C1115       C  0.65281424  0.33224154  0.01061705     0.20900
C1116       C  0.66612208  0.34353757  0.00790408     0.03100
C1117       C  0.67060267  0.34865743  0.99132840    -0.22200
C1118       C  0.66112755  0.34195309  0.97772768     0.12300
S1119       S  0.63791352  0.32391559  0.96239320    -0.05900
C1120       C  0.65174289  0.33652428  0.95087146    -0.09300
C1121       C  0.66340442  0.34543036  0.96071931    -0.26000
S1122       S  0.67576262  0.35038840  0.02618117    -0.03100
C1123       C  0.66163487  0.33794600  0.03758624    -0.16600
C1124       C  0.65021192  0.32895206  0.02757833    -0.14600
H1125       H  0.63298580  0.31672445  0.99923733     0.20800
H1126       H  0.68094314  0.35752760  0.98913688     0.16800
H1127       H  0.67305365  0.35395533  0.95574360     0.19300
H1128       H  0.64034176  0.32060339  0.03240661     0.12700
C1129       C  0.16692972  0.28354841  0.57251567     0.16500
C1130       C  0.17025658  0.27144468  0.55982092    -0.32500
C1131       C  0.18621289  0.27201503  0.55179344     0.20900
C1132       C  0.19832054  0.28410389  0.55616604     0.03100
C1133       C  0.19504696  0.29611063  0.56895726    -0.22200
C1134       C  0.17910335  0.29551801  0.57700025     0.12300
S1135       S  0.14823026  0.28526025  0.58351519    -0.05900
C1136       C  0.15692887  0.30224803  0.59434212    -0.09300
C1137       C  0.17347863  0.30621926  0.58957223    -0.26000
S1138       S  0.21676436  0.28286614  0.54469922    -0.03100
C1139       C  0.20812198  0.26578500  0.53397884    -0.16600
C1140       C  0.19179680  0.26141114  0.53910773    -0.14600
H1141       H  0.16079261  0.26206184  0.55628607     0.20800
H1142       H  0.20447089  0.30556120  0.57241998     0.16800
H1143       H  0.18096160  0.31653065  0.59482680     0.19300
H1144       H  0.18437468  0.25108511  0.53377411     0.12700
C1145       C  0.16772593  0.28740849  0.42203627     0.16500
C1146       C  0.17104523  0.27447640  0.43397491    -0.32500
C1147       C  0.18682733  0.27475546  0.44233263     0.20900
C1148       C  0.19871451  0.28743417  0.43909215     0.03100
C1149       C  0.19541222  0.30033466  0.42711669    -0.22200
C1150       C  0.17970259  0.29995438  0.41862550     0.12300
S1151       S  0.14943865  0.28922579  0.41041561    -0.05900
C1152       C  0.15811587  0.30692820  0.40062277    -0.09300
C1153       C  0.17428289  0.31116799  0.40631251    -0.26000
S1154       S  0.21701270  0.28562383  0.45070852    -0.03100
C1155       C  0.20863461  0.26749260  0.45992673    -0.16600
C1156       C  0.19247723  0.26322598  0.45423343    -0.14600
H1157       H  0.16176917  0.26458765  0.43657473     0.20800
H1158       H  0.20471745  0.31018102  0.42446388     0.16800
H1159       H  0.18171621  0.32184369  0.40167182     0.19300
H1160       H  0.18520713  0.25233530  0.45864654     0.12700
C1161       C  0.56818378  0.29269894  0.80921094     0.16500
C1162       C  0.55769054  0.28867625  0.79536890    -0.32500
C1163       C  0.54763297  0.27398846  0.79667409     0.20900
C1164       C  0.54805387  0.26365115  0.81106252     0.03100
C1165       C  0.55858422  0.26767951  0.82494029    -0.22200
C1166       C  0.56858445  0.28247042  0.82367819     0.12300
S1167       S  0.58120485  0.31003923  0.81006839    -0.05900
C1168       C  0.58729165  0.30355991  0.83020087    -0.09300
C1169       C  0.57953037  0.28866316  0.83581846    -0.26000
S1170       S  0.53475490  0.24643206  0.81008206    -0.03100
C1171       C  0.52848324  0.25337015  0.79014120    -0.16600
C1172       C  0.53643989  0.26817240  0.78465147    -0.14600
H1173       H  0.55731144  0.29670426  0.78410162     0.20800
H1174       H  0.55890279  0.25969841  0.83624003     0.16800
H1175       H  0.58178116  0.28265353  0.84806895     0.19300
H1176       H  0.53409161  0.27441499  0.77252663     0.12700
C1177       C  0.41578441  0.29539650  0.80583789     0.16500
C1178       C  0.42623082  0.29066162  0.79212982    -0.32500
C1179       C  0.43618237  0.27590672  0.79402604     0.20900
C1180       C  0.43569903  0.26621683  0.80885538     0.03100
C1181       C  0.42533684  0.27101867  0.82260902    -0.22200
C1182       C  0.41546587  0.28583483  0.82075141     0.12300
S1183       S  0.40254277  0.31269162  0.80597754    -0.05900
C1184       C  0.39657732  0.30706257  0.82641000    -0.09300
C1185       C  0.40455985  0.29252685  0.83264126    -0.26000
S1186       S  0.44867980  0.24871167  0.80856788    -0.03100
C1187       C  0.45500864  0.25462859  0.78832606    -0.16600
C1188       C  0.44726944  0.26934947  0.78222564    -0.14600
H1189       H  0.42658047  0.29814217  0.78049076     0.20800
H1190       H  0.42498136  0.26353615  0.83424663     0.16800
H1191       H  0.40232166  0.28695501  0.84510130     0.19300
H1192       H  0.44970605  0.27502049  0.76983940     0.12700
C1193       C  0.27771939  0.17112347  0.57150847     0.16500
C1194       C  0.26526913  0.17488873  0.55925508    -0.32500
C1195       C  0.26583377  0.19101968  0.55147655     0.20900
C1196       C  0.27817606  0.20290544  0.55574823     0.03100
C1197       C  0.29048926  0.19921250  0.56813271    -0.22200
C1198       C  0.28997750  0.18306422  0.57583557     0.12300
S1199       S  0.27967249  0.15207604  0.58196747    -0.05900
C1200       C  0.29721715  0.16030136  0.59226602    -0.09300
C1201       C  0.30113583  0.17696821  0.58778360    -0.26000
S1202       S  0.27702349  0.22153656  0.54449095    -0.03100
C1203       C  0.25970642  0.21324305  0.53390035    -0.16600
C1204       C  0.25512041  0.19692676  0.53900033    -0.14600
H1205       H  0.25571263  0.16558223  0.55577041     0.20800
H1206       H  0.30019198  0.20843111  0.57144645     0.16800
H1207       H  0.31174693  0.18420728  0.59276129     0.19300
H1208       H  0.24465399  0.18968761  0.53369909     0.12700
C1209       C  0.43607105  0.19542432  0.71144703     0.16500
C1210       C  0.42442813  0.19289616  0.69815869    -0.32500
C1211       C  0.41637449  0.17698280  0.69719506     0.20900
C1212       C  0.41986422  0.16409225  0.70883811     0.03100
C1213       C  0.43151649  0.16661585  0.72213529    -0.22200
C1214       C  0.43944717  0.18259785  0.72320179     0.12300
S1215       S  0.44708897  0.21384131  0.71483278    -0.05900
C1216       C  0.45623719  0.20425141  0.73239142    -0.09300
C1217       C  0.45098349  0.18761080  0.73531173    -0.26000
S1218       S  0.40866716  0.14576483  0.70552211    -0.03100
C1219       C  0.39901339  0.15563242  0.68837255    -0.16600
C1220       C  0.40442417  0.17221069  0.68541451    -0.14600
H1221       H  0.42168814  0.20293086  0.68903337     0.20800
H1222       H  0.43418625  0.15661158  0.73131417     0.16800
H1223       H  0.45545057  0.17958217  0.74565577     0.19300
H1224       H  0.39979613  0.18041232  0.67528974     0.12700
C1225       C  0.27682444  0.79929711  0.54502711     0.16500
C1226       C  0.29050919  0.80199367  0.55614620    -0.32500
C1227       C  0.29006448  0.81658729  0.56641056     0.20900
C1228       C  0.27669383  0.82811398  0.56550135     0.03100
C1229       C  0.26302508  0.82545949  0.55431902    -0.22200
C1230       C  0.26337929  0.81074600  0.54418888     0.12300
S1231       S  0.27480815  0.78212015  0.53189617    -0.05900
C1232       C  0.25556121  0.79033502  0.52526927    -0.09300
C1233       C  0.25111562  0.80567648  0.53283795    -0.26000
S1234       S  0.27847603  0.84491527  0.57915941    -0.03100
C1235       C  0.29734668  0.83620500  0.58633668    -0.16600
C1236       C  0.30195123  0.82114970  0.57834661    -0.14600
H1237       H  0.30094622  0.79299182  0.55691876     0.20800
H1238       H  0.25249506  0.83436206  0.55368504     0.16800
H1239       H  0.23949445  0.81266853  0.53027345     0.19300
H1240       H  0.31332165  0.81385735  0.58116194     0.12700
C1241       C  0.32250104  0.98080599  0.64767275     0.16500
C1242       C  0.31749118  0.99706003  0.64210328    -0.32500
C1243       C  0.32547462  0.01117856  0.64957276     0.20900
C1244       C  0.33780080  0.00918507  0.66208933     0.03100
C1245       C  0.34277671  0.99295546  0.66767070    -0.22200
C1246       C  0.33488736  0.97885418  0.66013454     0.12300
S1247       S  0.31468017  0.96206941  0.63996326    -0.05900
C1248       C  0.32836494  0.95148512  0.65357794    -0.09300
C1249       C  0.33830094  0.96206863  0.66359170    -0.26000
S1250       S  0.34613989  0.02781390  0.66941670    -0.03100
C1251       C  0.33296778  0.03849184  0.65540862    -0.16600
C1252       C  0.32262240  0.02800133  0.64567730    -0.14600
H1253       H  0.30791459  0.99862540  0.63228246     0.20800
H1254       H  0.35249369  0.99138616  0.67735289     0.16800
H1255       H  0.34767184  0.95775970  0.67277117     0.19300
H1256       H  0.31362895  0.03239215  0.63616291     0.12700
C1257       C  0.57029322  0.18868535  0.69439376     0.16500
C1258       C  0.55826618  0.20127990  0.69843783    -0.32500
C1259       C  0.54854066  0.19896811  0.71331536     0.20900
C1260       C  0.55062916  0.18473572  0.72366019     0.03100
C1261       C  0.56253294  0.17209594  0.71953791    -0.22200
C1262       C  0.57227988  0.17442815  0.70471708     0.12300
S1263       S  0.58373221  0.18926384  0.67721665    -0.05900
C1264       C  0.59206434  0.17005409  0.68402650    -0.09300
C1265       C  0.58465910  0.16367280  0.69879244    -0.26000
S1266       S  0.53781703  0.18440212  0.74127811    -0.03100
C1267       C  0.52951008  0.20366322  0.73467775    -0.16600
C1268       C  0.53640751  0.20987248  0.71956558    -0.14600
H1269       H  0.55667715  0.21246185  0.69044415     0.20800
H1270       H  0.56422247  0.16098233  0.72760857     0.16800
H1271       H  0.58828611  0.15189074  0.70505197     0.19300
H1272       H  0.53278367  0.22176661  0.71350611     0.12700
C1273       C  0.66209282  0.99136067  0.64468812     0.16500
C1274       C  0.66834798  0.00752391  0.64017128    -0.32500
C1275       C  0.66020633  0.02184363  0.64715913     0.20900
C1276       C  0.64649088  0.02013466  0.65818014     0.03100
C1277       C  0.64025293  0.00399056  0.66269731    -0.22200
C1278       C  0.64836893  0.98968780  0.65570123     0.12300
S1279       S  0.67001164  0.97241548  0.63744520    -0.05900
C1280       C  0.65466532  0.96209966  0.64939034    -0.09300
C1281       C  0.64407445  0.97295385  0.65847991    -0.26000
S1282       S  0.63829733  0.03901159  0.66521004    -0.03100
C1283       C  0.65344287  0.04941685  0.65311855    -0.16600
C1284       C  0.66425845  0.03862813  0.64419010    -0.14600
H1285       H  0.67903074  0.00887930  0.63152994     0.20800
H1286       H  0.62950515  0.00263833  0.67125904     0.16800
H1287       H  0.63366330  0.96887413  0.66657548     0.19300
H1288       H  0.67448521  0.04280200  0.63590646     0.12700
C1289       C  0.81265609  0.29716419  0.41092717     0.16500
C1290       C  0.79902099  0.29324233  0.42170482    -0.32500
C1291       C  0.80066720  0.27896977  0.43232451     0.20900
C1292       C  0.81521098  0.26893135  0.43224896     0.03100
C1293       C  0.82895665  0.27292745  0.42149633    -0.22200
C1294       C  0.82731967  0.28729851  0.41086376     0.12300
S1295       S  0.81292110  0.31389625  0.39704705    -0.05900
C1296       C  0.83308780  0.30771398  0.39105684    -0.09300
C1297       C  0.83917011  0.29334267  0.39947873    -0.26000
S1298       S  0.81446843  0.25204811  0.44611369    -0.03100
C1299       C  0.79442039  0.25876928  0.45208005    -0.16600
C1300       C  0.78875865  0.27324996  0.44367775    -0.14600
H1301       H  0.78759247  0.30098406  0.42179550     0.20800
H1302       H  0.84038197  0.26518848  0.42140405     0.16800
H1303       H  0.85151618  0.28757906  0.39735388     0.19300
H1304       H  0.77653962  0.27931212  0.44577811     0.12700
C1305       C  0.81302107  0.27020151  0.54731221     0.16500
C1306       C  0.82590421  0.27347115  0.55920021    -0.32500
C1307       C  0.82414432  0.28794352  0.56951043     0.20900
C1308       C  0.81018605  0.29869381  0.56810120     0.03100
C1309       C  0.79737753  0.29551918  0.55609582    -0.22200
C1310       C  0.79914804  0.28104927  0.54577485     0.12300
S1311       S  0.81256436  0.25307430  0.53391947    -0.05900
C1312       C  0.79351661  0.26066578  0.52610001    -0.09300
C1313       C  0.78794684  0.27568150  0.53355877    -0.26000
S1314       S  0.81023799  0.31531896  0.58211753    -0.03100
C1315       C  0.82934781  0.30776368  0.58987455    -0.16600
C1316       C  0.83522439  0.29313350  0.58191499    -0.14600
H1317       H  0.83675926  0.26503602  0.56045208     0.20800
H1318       H  0.78644821  0.30387273  0.55494591     0.16800
H1319       H  0.77621314  0.28221354  0.53036151     0.19300
H1320       H  0.84688159  0.28649727  0.58514546     0.12700
C1321       C  0.71462166  0.17448870  0.56581441     0.16500
C1322       C  0.72702949  0.17626908  0.55310824    -0.32500
C1323       C  0.72856449  0.19222941  0.54518448     0.20900
C1324       C  0.71819308  0.20582952  0.54965157     0.03100
C1325       C  0.70585028  0.20407938  0.56245503    -0.22200
C1326       C  0.70433134  0.18810268  0.57040184     0.12300
S1327       S  0.71063050  0.15610079  0.57675642    -0.05900
C1328       C  0.69493794  0.16684541  0.58771147    -0.09300
C1329       C  0.69302004  0.18380791  0.58300741    -0.26000
S1330       S  0.72183739  0.22402598  0.53821645    -0.03100
C1331       C  0.73755411  0.21318378  0.52738675    -0.16600
C1332       C  0.73977833  0.19640361  0.53248083    -0.14600
H1333       H  0.73508324  0.16565819  0.54950312     0.20800
H1334       H  0.69772736  0.21466002  0.56599042     0.16800
H1335       H  0.68380075  0.19252557  0.58840885     0.19300
H1336       H  0.74897509  0.18766974  0.52704309     0.12700
C1337       C  0.71639583  0.20167018  0.43317075     0.16500
C1338       C  0.70337339  0.19913339  0.42121695    -0.32500
C1339       C  0.70149216  0.18271899  0.41440867     0.20900
C1340       C  0.71201086  0.16939694  0.41938412     0.03100
C1341       C  0.72505912  0.17194205  0.43130363    -0.22200
C1342       C  0.72704105  0.18838561  0.43799697     0.12300
S1343       S  0.72066629  0.22057541  0.44300200    -0.05900
C1344       C  0.73706633  0.21052687  0.45363668    -0.09300
C1345       C  0.73901164  0.19341433  0.44967637    -0.26000
S1346       S  0.70770432  0.15047356  0.40961026    -0.03100
C1347       C  0.69169714  0.16062783  0.39847673    -0.16600
C1348       C  0.68980004  0.17777335  0.40241088    -0.14600
H1349       H  0.69510820  0.20950820  0.41735453     0.20800
H1350       H  0.73334897  0.16157587  0.43513483     0.16800
H1351       H  0.74850605  0.18505151  0.45522355     0.19300
H1352       H  0.68048410  0.18622990  0.39672106     0.12700
C1353       C  0.56292786  0.83032768  0.28074865     0.16500
C1354       C  0.55132943  0.82792967  0.26736591    -0.32500
C1355       C  0.54182126  0.81278029  0.26731286     0.20900
C1356       C  0.54365295  0.80064736  0.28010131     0.03100
C1357       C  0.55522147  0.80305954  0.29348308    -0.22200
C1358       C  0.56485027  0.81811086  0.29343691     0.12300
S1359       S  0.57577313  0.84773162  0.28306919    -0.05900
C1360       C  0.58392193  0.83839471  0.30127027    -0.09300
C1361       C  0.57691443  0.82263063  0.30520819    -0.26000
S1362       S  0.53107111  0.78308468  0.27769577    -0.03100
C1363       C  0.52337517  0.79204383  0.25912814    -0.16600
C1364       C  0.53017976  0.80791724  0.25522549    -0.14600
H1365       H  0.54987573  0.83738961  0.25737087     0.20800
H1366       H  0.55675365  0.79355112  0.30342106     0.16800
H1367       H  0.58036023  0.81490243  0.31614837     0.19300
H1368       H  0.52687426  0.81543910  0.24409193     0.12700
C1369       C  0.65954999  0.98340195  0.34543052     0.16500
C1370       C  0.66510504  0.99964303  0.35041990    -0.32500
C1371       C  0.65726481  0.01385004  0.34281757     0.20900
C1372       C  0.64451354  0.01195803  0.33074221     0.03100
C1373       C  0.63896128  0.99572853  0.32575769    -0.22200
C1374       C  0.64676076  0.98153339  0.33339535     0.12300
S1375       S  0.66722011  0.96458833  0.35333593    -0.05900
C1376       C  0.65296758  0.95404525  0.34038164    -0.09300
C1377       C  0.64295298  0.96473296  0.33040969    -0.26000
S1378       S  0.63662674  0.03072864  0.32300878    -0.03100
C1379       C  0.65061724  0.04132924  0.33619674    -0.16600
C1380       C  0.66080862  0.03068299  0.34603608    -0.14600
H1381       H  0.67504531  0.00113861  0.35986865     0.20800
H1382       H  0.62895339  0.99423314  0.31637953     0.16800
H1383       H  0.63323692  0.96049643  0.32159903     0.19300
H1384       H  0.67031882  0.03498417  0.35503978     0.12700
C1385       C  0.43957678  0.26336076  0.17307396     0.16500
C1386       C  0.42853362  0.26782035  0.15971662    -0.32500
C1387       C  0.41843072  0.28243743  0.16180617     0.20900
C1388       C  0.41916393  0.29206315  0.17660624     0.03100
C1389       C  0.43022110  0.28763502  0.18992697    -0.22200
C1390       C  0.44043391  0.27313688  0.18776791     0.12300
S1391       S  0.45297930  0.24619353  0.17301529    -0.05900
C1392       C  0.45992804  0.25236002  0.19293138    -0.09300
C1393       C  0.45212036  0.26692487  0.19918268    -0.26000
S1394       S  0.40590426  0.30928490  0.17672667    -0.03100
C1395       C  0.39942364  0.30365923  0.15649711    -0.16600
C1396       C  0.40714565  0.28906345  0.15017280    -0.14600
H1397       H  0.42792291  0.26029466  0.14816795     0.20800
H1398       H  0.43090196  0.29521721  0.20143633     0.16800
H1399       H  0.45483272  0.27265741  0.21144245     0.19300
H1400       H  0.40468720  0.28360748  0.13774037     0.12700
C1401       C  0.55451882  0.26144710  0.17248010     0.16500
C1402       C  0.56583581  0.26538839  0.15919245    -0.32500
C1403       C  0.57664199  0.27945157  0.16140266     0.20900
C1404       C  0.57624803  0.28909942  0.17620489     0.03100
C1405       C  0.56485273  0.28525030  0.18941257    -0.22200
C1406       C  0.55402113  0.27124670  0.18717771     0.12300
S1407       S  0.54054735  0.24476008  0.17245083    -0.05900
C1408       C  0.53392618  0.25112894  0.19241831    -0.09300
C1409       C  0.54217626  0.26544536  0.19862250    -0.26000
S1410       S  0.59058783  0.30539737  0.17661910    -0.03100
C1411       C  0.59711824  0.29930433  0.15653982    -0.16600
C1412       C  0.58855272  0.28531030  0.15000411    -0.14600
H1413       H  0.56624482  0.25779662  0.14767633     0.20800
H1414       H  0.56450137  0.29279322  0.20096462     0.16800
H1415       H  0.53974434  0.27121966  0.21092730     0.19300
H1416       H  0.59099932  0.27962204  0.13766932     0.12700
C1417       C  0.57500204  0.18346278  0.28521146     0.16500
C1418       C  0.56424328  0.19694275  0.28048922    -0.32500
C1419       C  0.55341561  0.19443219  0.26649108     0.20900
C1420       C  0.55334183  0.17921427  0.25752151     0.03100
C1421       C  0.56404100  0.16569226  0.26230753    -0.22200
C1422       C  0.57482114  0.16817851  0.27636196     0.12300
S1423       S  0.58913806  0.18402459  0.30173935    -0.05900
C1424       C  0.59483054  0.16338370  0.29678765    -0.09300
C1425       C  0.58613011  0.15657830  0.28298113    -0.26000
S1426       S  0.53939330  0.17880969  0.24079639    -0.03100
C1427       C  0.53347615  0.19931625  0.24603766    -0.16600
C1428       C  0.54200657  0.20598994  0.26000196    -0.14600
H1429       H  0.56431515  0.20887213  0.28741787     0.20800
H1430       H  0.56397710  0.15376614  0.25537437     0.16800
H1431       H  0.58800946  0.14386447  0.27797169     0.19300
H1432       H  0.53999861  0.21865075  0.26511514     0.12700
C1433       C  0.28003392  0.20525819  0.43760020     0.16500
C1434       C  0.29250131  0.20234967  0.42516042    -0.32500
C1435       C  0.29247009  0.18648586  0.41697092     0.20900
C1436       C  0.28060596  0.17401642  0.42099398     0.03100
C1437       C  0.26802965  0.17697624  0.43335098    -0.22200
C1438       C  0.26802348  0.19288430  0.44151242     0.12300
S1439       S  0.27814716  0.22355705  0.44917150    -0.05900
C1440       C  0.26089528  0.21452847  0.45933542    -0.09300
C1441       C  0.25692099  0.19817657  0.45392883    -0.26000
S1442       S  0.28294882  0.15553470  0.40974230    -0.03100
C1443       C  0.29999381  0.16479072  0.39938116    -0.16600
C1444       C  0.30358099  0.18129576  0.40456254    -0.14600
H1445       H  0.30186326  0.21200852  0.42204613     0.20800
H1446       H  0.25870479  0.16729567  0.43650472     0.16800
H1447       H  0.24657641  0.19051689  0.45893074     0.19300
H1448       H  0.31380737  0.18911500  0.39958499     0.12700
C1449       C  0.43730175  0.18276235  0.25698584     0.16500
C1450       C  0.42516668  0.17032389  0.26106864    -0.32500
C1451       C  0.41549439  0.17270126  0.27591497     0.20900
C1452       C  0.41768809  0.18687064  0.28622181     0.03100
C1453       C  0.42985347  0.19931947  0.28215054    -0.22200
C1454       C  0.43960101  0.19689093  0.26733431     0.12300
S1455       S  0.45032732  0.18217698  0.23954520    -0.05900
C1456       C  0.45905394  0.20114469  0.24629042    -0.09300
C1457       C  0.45209237  0.20748827  0.26126394    -0.26000
S1458       S  0.40460144  0.18734610  0.30365034    -0.03100
C1459       C  0.39619969  0.16815599  0.29703559    -0.16600
C1460       C  0.40322794  0.16192041  0.28206239    -0.14600
H1461       H  0.42337742  0.15924297  0.25305238     0.20800
H1462       H  0.43166773  0.21038125  0.29018622     0.16800
H1463       H  0.45593931  0.21924678  0.26736413     0.19300
H1464       H  0.39957436  0.15012017  0.27594111     0.12700
C1465       C  0.27006450  0.80046283  0.42997363     0.16500
C1466       C  0.28264063  0.80342520  0.41764487    -0.32500
C1467       C  0.28285326  0.81943661  0.40966997     0.20900
C1468       C  0.27108903  0.83196040  0.41379044     0.03100
C1469       C  0.25843705  0.82896482  0.42606315    -0.22200
C1470       C  0.25820985  0.81293082  0.43403457     0.12300
S1471       S  0.26795134  0.78201552  0.44131499    -0.05900
C1472       C  0.25089235  0.79114647  0.45166801    -0.09300
C1473       C  0.24708239  0.80762326  0.44645269    -0.26000
S1474       S  0.27363273  0.85058769  0.40278918    -0.03100
C1475       C  0.29065166  0.84136640  0.39241771    -0.16600
C1476       C  0.29410010  0.82473852  0.39739120    -0.14600
H1477       H  0.29190290  0.79370263  0.41446753     0.20800
H1478       H  0.24923670  0.83872236  0.42930992     0.16800
H1479       H  0.23691696  0.81537455  0.45164320     0.19300
H1480       H  0.30428678  0.81693023  0.39234770     0.12700
C1481       C  0.42843496  0.80291925  0.27432155     0.16500
C1482       C  0.41642800  0.80630173  0.28709167    -0.32500
C1483       C  0.40716093  0.82153710  0.28585850     0.20900
C1484       C  0.40973568  0.83295099  0.27255070     0.03100
C1485       C  0.42170851  0.82953470  0.25973048    -0.22200
C1486       C  0.43097190  0.81427615  0.26094807     0.12300
S1487       S  0.44102850  0.78520391  0.27359742    -0.05900
C1488       C  0.44983674  0.79316172  0.25506359    -0.09300
C1489       C  0.44324511  0.80873058  0.24982839    -0.26000
S1490       S  0.39733875  0.85083060  0.27354851    -0.03100
C1491       C  0.38850893  0.84277181  0.29203359    -0.16600
C1492       C  0.39496480  0.82706611  0.29703134    -0.14600
H1493       H  0.41441384  0.79745758  0.29754896     0.20800
H1494       H  0.42376170  0.83840611  0.24930616     0.16800
H1495       H  0.44725993  0.81564904  0.23853574     0.19300
H1496       H  0.39107130  0.82008916  0.30832407     0.12700
C1497       C  0.31788199  0.99112458  0.33501384     0.16500
C1498       C  0.31405586  0.00747943  0.34103594    -0.32500
C1499       C  0.32147751  0.02138202  0.33256627     0.20900
C1500       C  0.33203068  0.01916081  0.31855442     0.03100
C1501       C  0.33569938  0.00279643  0.31239887    -0.22200
C1502       C  0.32849630  0.98886288  0.32105095     0.12300
S1503       S  0.31091600  0.97261806  0.34412647    -0.05900
C1504       C  0.32260177  0.96164664  0.32910247    -0.09300
C1505       C  0.33122207  0.97196194  0.31756570    -0.26000
S1506       S  0.34033782  0.03765991  0.31056063    -0.03100
C1507       C  0.32963955  0.04848333  0.32641602    -0.16600
C1508       C  0.31998368  0.03816326  0.33707574    -0.14600
H1509       H  0.30597295  0.00927196  0.35209307     0.20800
H1510       H  0.34413384  0.00098387  0.30161360     0.16800
H1511       H  0.33931428  0.96738646  0.30736784     0.19300
H1512       H  0.31258898  0.04259772  0.34784875     0.12700
C1513       C  0.69377252  0.80883052  0.41934383     0.16500
C1514       C  0.69781653  0.79501437  0.43001972    -0.32500
C1515       C  0.71191195  0.79674521  0.44088076     0.20900
C1516       C  0.72160602  0.81152106  0.44103076     0.03100
C1517       C  0.71754239  0.82533046  0.43038446    -0.22200
C1518       C  0.70339901  0.82364377  0.41960793     0.12300
S1519       S  0.67709970  0.80937226  0.40536985    -0.05900
C1520       C  0.68303800  0.82986638  0.39994800    -0.09300
C1521       C  0.69730827  0.83575400  0.40852418    -0.26000
S1522       S  0.73823054  0.81110568  0.45505130    -0.03100
C1523       C  0.73204912  0.79082287  0.46087368    -0.16600
C1524       C  0.71781534  0.78482392  0.45228920    -0.14600
H1525       H  0.69027399  0.78345791  0.42991363     0.20800
H1526       H  0.72503932  0.83691644  0.43054524     0.16800
H1527       H  0.70291788  0.84825344  0.40683453     0.19300
H1528       H  0.71210643  0.77240358  0.45427252     0.12700
C1529       C  0.79188624  0.71515737  0.55544898     0.16500
C1530       C  0.79504467  0.70165805  0.56679023    -0.32500
C1531       C  0.81051566  0.70174796  0.57571564     0.20900
C1532       C  0.82232604  0.71469778  0.57345830     0.03100
C1533       C  0.81911089  0.72827650  0.56221156    -0.22200
C1534       C  0.80363195  0.72818776  0.55327915     0.12300
S1535       S  0.77407460  0.71713386  0.54313994    -0.05900
C1536       C  0.78247445  0.73576147  0.53498442    -0.09300
C1537       C  0.79826439  0.74011209  0.54159866    -0.26000
S1538       S  0.84045377  0.71228109  0.58523114    -0.03100
C1539       C  0.83201922  0.69365235  0.59337701    -0.16600
C1540       C  0.81597163  0.68966499  0.58716856    -0.14600
H1541       H  0.78589442  0.69146465  0.56848977     0.20800
H1542       H  0.82832003  0.73839900  0.56041318     0.16800
H1543       H  0.80552167  0.75126905  0.53789858     0.19300
H1544       H  0.80870731  0.67847166  0.59071665     0.12700
C1545       C  0.70900467  0.79725027  0.55574969     0.16500
C1546       C  0.69634032  0.80024175  0.56804196    -0.32500
C1547       C  0.69564997  0.81651682  0.57546496     0.20900
C1548       C  0.70704335  0.82922072  0.57083755     0.03100
C1549       C  0.71974232  0.82620320  0.55865758    -0.22200
C1550       C  0.72045732  0.80995752  0.55128149     0.12300
S1551       S  0.71187532  0.77851437  0.54498341    -0.05900
C1552       C  0.72878544  0.78789040  0.53449660    -0.09300
C1553       C  0.73186807  0.80464419  0.53918466    -0.26000
S1554       S  0.70396813  0.84816451  0.58101841    -0.03100
C1555       C  0.68711486  0.83896080  0.59170852    -0.16600
C1556       C  0.68419197  0.82201676  0.58750030    -0.14600
H1557       H  0.68736847  0.79036261  0.57158759     0.20800
H1558       H  0.72865181  0.83611608  0.55503981     0.16800
H1559       H  0.74185192  0.81258987  0.53389340     0.19300
H1560       H  0.67415267  0.81417236  0.59281248     0.12700
C1561       C  0.80752142  0.73018853  0.44110956     0.16500
C1562       C  0.82139986  0.72688756  0.43029582    -0.32500
C1563       C  0.82015489  0.71293182  0.41916594     0.20900
C1564       C  0.80572877  0.70275320  0.41883078     0.03100
C1565       C  0.79192641  0.70597898  0.42970625    -0.22200
C1566       C  0.79316844  0.71990292  0.44082105     0.12300
S1567       S  0.80637009  0.74661047  0.45536476    -0.05900
C1568       C  0.78636167  0.73949147  0.46105390    -0.09300
C1569       C  0.78101809  0.72513583  0.45225741    -0.26000
S1570       S  0.80647046  0.68670718  0.40420162    -0.03100
C1571       C  0.82648028  0.69368150  0.39840850    -0.16600
C1572       C  0.83216876  0.70773484  0.40752058    -0.14600
H1573       H  0.83262526  0.73489776  0.43048181     0.20800
H1574       H  0.78065500  0.69803349  0.42944043     0.16800
H1575       H  0.76884724  0.71889754  0.45407000     0.19300
H1576       H  0.84431656  0.71396853  0.40559126     0.12700
C1577       C  0.42458400  0.69871716  0.80992125     0.16500
C1578       C  0.43476839  0.70344109  0.79601963    -0.32500
C1579       C  0.44317194  0.71916757  0.79685297     0.20900
C1580       C  0.44152662  0.72977166  0.81088948     0.03100
C1581       C  0.43132600  0.72502806  0.82483459    -0.22200
C1582       C  0.42292812  0.70924542  0.82401657     0.12300
S1583       S  0.41335712  0.68017939  0.81125284    -0.05900
C1584       C  0.40632117  0.68656199  0.83107580    -0.09300
C1585       C  0.41247472  0.70230654  0.83625766    -0.26000
S1586       S  0.45301691  0.74823076  0.80944075    -0.03100
C1587       C  0.46013115  0.74152951  0.78973809    -0.16600
C1588       C  0.45378684  0.72584453  0.78468332    -0.14600
H1589       H  0.43611039  0.69519413  0.78503560     0.20800
H1590       H  0.43004504  0.73323812  0.83585039     0.16800
H1591       H  0.40940730  0.70840244  0.84825163     0.19300
H1592       H  0.45697140  0.71952642  0.77282699     0.12700
C1593       C  0.55127974  0.80388951  0.71272336     0.16500
C1594       C  0.56120236  0.80791733  0.69844579    -0.32500
C1595       C  0.57054831  0.82310266  0.69886617     0.20900
C1596       C  0.57007268  0.83388008  0.71285446     0.03100
C1597       C  0.56019285  0.82979620  0.72723146    -0.22200
C1598       C  0.55080666  0.81455955  0.72680393     0.12300
S1599       S  0.53873164  0.78624908  0.71439285    -0.05900
C1600       C  0.53262880  0.79328798  0.73426482    -0.09300
C1601       C  0.54013406  0.80848945  0.73928918    -0.26000
S1602       S  0.58227613  0.85180673  0.71062906    -0.03100
C1603       C  0.58818241  0.84453240  0.69073154    -0.16600
C1604       C  0.58091639  0.82911051  0.68618656    -0.14600
H1605       H  0.56155847  0.79960589  0.68743622     0.20800
H1606       H  0.55974285  0.83816593  0.73818995     0.16800
H1607       H  0.53767126  0.81489973  0.75126364     0.19300
H1608       H  0.58306676  0.82260160  0.67421010     0.12700
C1609       C  0.55389247  0.71880494  0.79525891     0.16500
C1610       C  0.56532457  0.70531420  0.79802050    -0.32500
C1611       C  0.57458498  0.70521966  0.81333775     0.20900
C1612       C  0.57255842  0.71799485  0.82536482     0.03100
C1613       C  0.56123351  0.73156429  0.82253725    -0.22200
C1614       C  0.55195049  0.73165035  0.80723135     0.12300
S1615       S  0.54121987  0.72102201  0.77768858    -0.05900
C1616       C  0.53320383  0.73950017  0.78649917    -0.09300
C1617       C  0.54013227  0.74360136  0.80225594    -0.26000
S1618       S  0.58459157  0.71530578  0.84332439    -0.03100
C1619       C  0.59250652  0.69676702  0.83456837    -0.16600
C1620       C  0.58609084  0.69305611  0.81849292    -0.14600
H1621       H  0.56682712  0.69525390  0.78869964     0.20800
H1622       H  0.55960943  0.74153442  0.83193400     0.16800
H1623       H  0.53661194  0.75464816  0.80973604     0.19300
H1624       H  0.58942832  0.68191862  0.81107310     0.12700
C1625       C  0.41809243  0.81235242  0.69698326     0.16500
C1626       C  0.42862420  0.79868667  0.70172997    -0.32500
C1627       C  0.43977456  0.80110781  0.71550315     0.20900
C1628       C  0.44048415  0.81647324  0.72417677     0.03100
C1629       C  0.43004832  0.83022758  0.71931086    -0.22200
C1630       C  0.41882375  0.82777658  0.70554961     0.12300
S1631       S  0.40345017  0.81178247  0.68087674    -0.05900
C1632       C  0.39817708  0.83259349  0.68561762    -0.09300
C1633       C  0.40745152  0.83946312  0.69905985    -0.26000
S1634       S  0.45465675  0.81660431  0.74079730    -0.03100
C1635       C  0.45967185  0.79572383  0.73599434    -0.16600
C1636       C  0.45079291  0.78922893  0.72214123    -0.14600
H1637       H  0.42804414  0.78662034  0.69506392     0.20800
H1638       H  0.43053431  0.84225076  0.72605826     0.16800
H1639       H  0.40591491  0.85227899  0.70392337     0.19300
H1640       H  0.45222134  0.77640204  0.71724789     0.12700
C1641       C  0.71103522  0.55675449  0.79497874     0.16500
C1642       C  0.69802203  0.56862782  0.79790072    -0.32500
C1643       C  0.69838395  0.57770291  0.81328588     0.20900
C1644       C  0.71112070  0.57507289  0.82525412     0.03100
C1645       C  0.72421333  0.56326804  0.82228310    -0.22200
C1646       C  0.72386162  0.55419524  0.80687626     0.12300
S1647       S  0.71265420  0.54429108  0.77724928    -0.05900
C1648       C  0.73087063  0.53555041  0.78587776    -0.09300
C1649       C  0.73534589  0.54206799  0.80169058    -0.26000
S1650       S  0.70905730  0.58712848  0.84325112    -0.03100
C1651       C  0.69085627  0.59587087  0.83454513    -0.16600
C1652       C  0.68676583  0.58966065  0.81850294    -0.14600
H1653       H  0.68799564  0.57063482  0.78862597     0.20800
H1654       H  0.73417615  0.56117977  0.83160800     0.16800
H1655       H  0.74630660  0.53804393  0.80905624     0.19300
H1656       H  0.67578556  0.59352592  0.81109443     0.12700
C1657       C  0.82330688  0.42183564  0.71460338     0.16500
C1658       C  0.82041712  0.43389938  0.72748861    -0.32500
C1659       C  0.80459519  0.44225661  0.72764039     0.20900
C1660       C  0.79223498  0.43873168  0.71552036     0.03100
C1661       C  0.79508668  0.42663415  0.70273750    -0.22200
C1662       C  0.81087284  0.41832171  0.70257375     0.12300
S1663       S  0.84166307  0.41040549  0.71199134    -0.05900
C1664       C  0.83241886  0.40075124  0.69454748    -0.09300
C1665       C  0.81600015  0.40626403  0.69107278    -0.26000
S1666       S  0.77404467  0.45039865  0.71757603    -0.00700
C1667       C  0.78311078  0.46021149  0.73498009    -0.16600
C1668       C  0.79939249  0.45456276  0.73893273    -0.14600
H1669       H  0.83009174  0.43671313  0.73690335     0.20800
H1670       H  0.78544989  0.42389345  0.69325857     0.16800
H1671       H  0.80816783  0.40174135  0.68067098     0.19300
H1672       H  0.80706897  0.45934507  0.74934535     0.12700
C1673       C  0.72265478  0.44246008  0.81101065     0.16500
C1674       C  0.71860898  0.43206692  0.82503930    -0.32500
C1675       C  0.70359752  0.42241612  0.82411838     0.20900
C1676       C  0.69316782  0.42303096  0.80984930     0.03100
C1677       C  0.69719480  0.43340369  0.79587720    -0.22200
C1678       C  0.71211391  0.44308773  0.79682445     0.12300
S1679       S  0.74012436  0.45535261  0.80960006    -0.05900
C1680       C  0.73298386  0.46173549  0.78977143    -0.09300
C1681       C  0.71797469  0.45409228  0.78460730    -0.26000
S1682       S  0.67568879  0.41026517  0.81100469    -0.03100
C1683       C  0.68241663  0.40396155  0.83096503    -0.16600
C1684       C  0.69743724  0.41151621  0.83636170    -0.14600
H1685       H  0.72675966  0.43155941  0.83617394     0.20800
H1686       H  0.68902667  0.43393057  0.78475255     0.16800
H1687       H  0.71158308  0.45658245  0.77260603     0.19300
H1688       H  0.70364114  0.40902034  0.84844990     0.12700
C1689       C  0.79169943  0.55493866  0.71181374     0.16500
C1690       C  0.79484937  0.56677196  0.69874343    -0.32500
C1691       C  0.81093883  0.57452501  0.69828385     0.20900
C1692       C  0.82334315  0.57068884  0.71028281     0.03100
C1693       C  0.82015024  0.55897063  0.72342631    -0.22200
C1694       C  0.80407242  0.55123161  0.72389129     0.12300
S1695       S  0.77316234  0.54383025  0.71440211    -0.05900
C1696       C  0.78217611  0.53417112  0.73200224    -0.09300
C1697       C  0.79864676  0.53940070  0.73555946    -0.26000
S1698       S  0.84209041  0.58130442  0.70738861    -0.03100
C1699       C  0.83310769  0.59114144  0.68986249    -0.16600
C1700       C  0.81645591  0.58627504  0.68654784    -0.14600
H1701       H  0.78522729  0.56972867  0.68929087     0.20800
H1702       H  0.82980143  0.55595432  0.73283161     0.16800
H1703       H  0.80632895  0.53464186  0.74601922     0.19300
H1704       H  0.80875554  0.59104831  0.67612166     0.12700
loop_ 
_geom_bond_atom_site_label_1 
_geom_bond_atom_site_label_2 
_geom_bond_distance 
_geom_bond_site_symmetry_2 
_ccdc_geom_bond_type 
O1           Cu9   2.005       .  S
O1           C11   1.276       .  A
O2           Cu9   2.005       .  S
O2           C12   1.278       .  A
O3           Cu9   2.021       .  S
O3           C13   1.280       .  A
O4           Cu9   2.019       .  S
O4           C14   1.279       .  A
O5          Cu10   2.001       .  S
O5           C14   1.277       .  A
O6          Cu10   2.001       .  S
O6           C13   1.276       .  A
O7          Cu10   2.011       .  S
O7           C12   1.278       .  A
O8          Cu10   2.007       .  S
O8           C11   1.278       .  A
Cu9         Cu10   2.374       .  S
C11        C1680   1.469       .  S
C12        C1696   1.471       .  S
C13        C1648   1.473       .  S
C14        C1667   1.472       .  S
O15         Cu23   2.007       .  S
O15          C25   1.278       .  A
O16         Cu23   2.004       .  S
O16          C26   1.277       .  A
O17         Cu23   2.008       .  S
O17          C27   1.277       .  A
O18         Cu23   2.011       .  S
O18          C28   1.278       .  A
O19         Cu24   2.031       .  S
O19          C28   1.280       .  A
O20         Cu24   2.027       .  S
O20          C27   1.280       .  A
O21         Cu24   2.011       .  S
O21          C26   1.278       .  A
O22         Cu24   2.016       .  S
O22          C25   1.278       .  A
Cu23        Cu24   2.373       .  S
C25        C1587   1.474       .  S
C26        C1600   1.471       .  S
C27        C1616   1.478       .  S
C28        C1635   1.481       .  S
O29         Cu37   2.007       .  S
O29          C39   1.277       .  A
O30         Cu37   2.011       .  S
O30          C40   1.278       .  A
O31         Cu37   2.020       .  S
O31          C41   1.280       .  A
O32         Cu37   2.020       .  S
O32          C42   1.279       .  A
O33         Cu38   2.009       .  S
O33          C42   1.278       .  A
O34         Cu38   2.011       .  S
O34          C41   1.277       .  A
O35         Cu38   2.014       .  S
O35          C40   1.278       .  A
O36         Cu38   2.018       .  S
O36          C39   1.279       .  A
Cu37        Cu38   2.373       .  S
C39        C1536   1.474       .  S
C40        C1523   1.474       .  S
C41        C1568   1.477       .  S
C42        C1552   1.475       .  S
N43          N44   1.321       .  A
N43          C47   1.343       .  A
N43         Cu51   2.068       .  S
N44          C45   1.345       .  A
N44         Cu50   2.070       .  S
C45          C46   1.385       .  A
C45          H48   1.082       .  S
C46        C1475   1.473       .  S
C46          C47   1.383       .  A
C47          H49   1.082       .  S
Cu50         N53   2.070       .  S
Cu51         N61   2.068       .  S
Cu52         N54   2.081       .  S
Cu52         N60   2.080       .  S
N53          N54   1.323       .  A
N53          C57   1.343       .  A
N54          C55   1.347       .  A
C55          C56   1.385       .  A
C55          H58   1.082       .  S
C56        C1491   1.474       .  S
C56          C57   1.383       .  A
C57          H59   1.082       .  S
N60          N61   1.322       .  A
N60          C64   1.346       .  A
N61          C62   1.344       .  A
C62          C63   1.383       .  A
C62          H65   1.082       .  S
C63        C1504   1.475       .  S
C63          C64   1.386       .  A
C64          H66   1.082       .  S
N67          N68   1.322       .  A
N67          C71   1.346       .  A
N67         Cu75   2.074       .  S
N68          C69   1.344       .  A
N68         Cu74   2.074       .  S
C69          C70   1.385       .  A
C69          H72   1.081       .  S
C70        C1443   1.475       .  S
C70          C71   1.385       .  A
C71          H73   1.082       .  S
Cu74         N77   2.074       .  S
Cu75         N85   2.073       .  S
Cu76         N78   2.073       .  S
Cu76         N84   2.073       .  S
N77          N78   1.322       .  A
N77          C81   1.346       .  A
N78          C79   1.344       .  A
C79          C80   1.385       .  A
C79          H82   1.082       .  S
C80        C1459   1.475       .  S
C80          C81   1.385       .  A
C81          H83   1.082       .  S
N84          N85   1.322       .  A
N84          C88   1.345       .  A
N85          C86   1.344       .  A
C86          C87   1.385       .  A
C86          H89   1.081       .  S
C87        C1507   1.475       .  S
C87          C88   1.384       .  A
C88          H90   1.082       .  S
O91         Cu99   2.012       .  S
O91         C101   1.278       .  A
O92         Cu99   2.012       .  S
O92         C102   1.278       .  A
O93         Cu99   2.012       .  S
O93         C103   1.278       .  A
O94         Cu99   2.016       .  S
O94         C104   1.278       .  A
O95        Cu100   2.011       .  S
O95         C104   1.278       .  A
O96        Cu100   2.011       .  S
O96         C103   1.278       .  A
O97        Cu100   2.006       .  S
O97         C102   1.277       .  A
O98        Cu100   2.005       .  S
O98         C101   1.278       .  A
Cu99       Cu100   2.374       .  S
C101       C1408   1.471       .  S
C102       C1456   1.472       .  S
C103       C1392   1.473       .  S
C104       C1427   1.475       .  S
N105        N106   1.322       .  A
N105        C109   1.345       .  A
N105       Cu113   2.076       .  S
N106        C107   1.345       .  A
N106       Cu112   2.073       .  S
C107        C108   1.385       .  A
C107        H110   1.082       .  S
C108       C1360   1.476       .  S
C108        C109   1.384       .  A
C109        H111   1.082       .  S
Cu112       N115   2.073       .  S
Cu113       N123   2.077       .  S
Cu114       N116   2.080       .  S
Cu114       N122   2.080       .  S
N115        N116   1.322       .  A
N115        C119   1.345       .  A
N116        C117   1.346       .  A
C117        C118   1.387       .  A
C117        H120   1.082       .  S
C118       C1520   1.477       .  S
C118        C119   1.384       .  A
C119        H121   1.082       .  S
N122        N123   1.322       .  A
N122        C126   1.346       .  A
N123        C124   1.346       .  A
C124        C125   1.386       .  A
C124        H127   1.081       .  S
C125       C1376   1.478       .  S
C125        C126   1.385       .  A
C126        H128   1.082       .  S
N129        N130   1.322       .  A
N129        C133   1.346       .  A
N129       Cu137   2.076       .  S
N130        C131   1.345       .  A
N130       Cu136   2.075       .  S
C131        C132   1.385       .  A
C131        H134   1.082       .  S
C132       C1424   1.477       .  S
C132        C133   1.386       .  A
C133        H135   1.082       .  S
Cu136       N139   2.076       .  S
Cu137       N147   2.076       .  S
Cu138       N140   2.081       .  S
Cu138       N146   2.081       .  S
N139        N140   1.323       .  A
N139        C143   1.346       .  A
N140        C141   1.345       .  A
C141        C142   1.385       .  A
C141        H144   1.082       .  S
C142       C1347   1.477       .  S
C142        C143   1.385       .  A
C143        H145   1.082       .  S
N146        N147   1.322       .  A
N146        C150   1.347       .  A
N147        C148   1.344       .  A
C148        C149   1.384       .  A
C148        H151   1.082       .  S
C149       C1379   1.478       .  S
C149        C150   1.387       .  A
C150        H152   1.082       .  S
O153       Cu161   2.016       .  S
O153        C163   1.279       .  A
O154       Cu161   2.013       .  S
O154        C164   1.278       .  A
O155       Cu161   2.007       .  S
O155        C165   1.278       .  A
O156       Cu161   2.013       .  S
O156        C166   1.277       .  A
O157       Cu162   2.000       .  S
O157        C166   1.277       .  A
O158       Cu162   2.002       .  S
O158        C165   1.276       .  A
O159       Cu162   1.999       .  S
O159        C164   1.277       .  A
O160       Cu162   2.003       .  S
O160        C163   1.277       .  A
Cu161      Cu162   2.375       .  S
C163       C1344   1.472       .  S
C164       C1312   1.470       .  S
C165       C1331   1.468       .  S
C166       C1299   1.470       .  S
N167        N168   1.321       .  A
N167        C171   1.344       .  A
N167       Cu175   2.076       .  S
N168        C169   1.347       .  A
N168       Cu174   2.074       .  S
C169        C170   1.386       .  A
C169        H172   1.082       .  S
C170       C1555   1.477       .  S
C170        C171   1.385       .  A
C171        H173   1.082       .  S
Cu174       N177   2.073       .  S
Cu175       N185   2.076       .  S
Cu176       N178   2.080       .  S
Cu176       N184   2.080       .  S
N177        N178   1.323       .  A
N177        C181   1.343       .  A
N178        C179   1.347       .  A
C179        C180   1.384       .  A
C179        H182   1.082       .  S
C180       C1603   1.474       .  S
C180        C181   1.383       .  A
C181        H183   1.082       .  S
N184        N185   1.322       .  A
N184        C188   1.346       .  A
N185        C186   1.345       .  A
C186        C187   1.385       .  A
C186        H189   1.082       .  S
C187       C1280   1.479       .  S
C187        C188   1.387       .  A
C188        H190   1.081       .  S
N191        N192   1.322       .  A
N191        C195   1.343       .  A
N191       Cu199   2.075       .  S
N192        C193   1.347       .  A
N192       Cu198   2.074       .  S
C193        C194   1.385       .  A
C193        H196   1.082       .  S
C194       C1264   1.476       .  S
C194        C195   1.384       .  A
C195        H197   1.082       .  S
Cu198       N201   2.073       .  S
Cu199       N209   2.076       .  S
Cu200       N202   2.076       .  S
Cu200       N208   2.076       .  S
N201        N202   1.323       .  A
N201        C205   1.345       .  A
N202        C203   1.344       .  A
C203        C204   1.383       .  A
C203        H206   1.082       .  S
C204       C1328   1.473       .  S
C204        C205   1.384       .  A
C205        H207   1.082       .  S
N208        N209   1.321       .  A
N208        C212   1.347       .  A
N209        C210   1.345       .  A
C210        C211   1.385       .  A
C210        H213   1.082       .  S
C211       C1283   1.478       .  S
C211        C212   1.387       .  A
C212        H214   1.081       .  S
N215        N216   1.321       .  A
N215        C219   1.342       .  A
N215       Cu223   2.056       .  S
N216        C217   1.347       .  A
N216       Cu222   2.088       .  S
C217        C218   1.389       .  A
C217        H220   1.082       .  S
C218       C1235   1.475       .  S
C218        C219   1.381       .  A
C219        H221   1.082       .  S
Cu222       N225   2.090       .  S
Cu223       N233   2.056       .  S
Cu224       N226   2.085       .  S
Cu224       N232   2.084       .  S
N225        N226   1.324       .  A
N225        C229   1.347       .  A
N226        C227   1.348       .  A
C227        C228   1.387       .  A
C227        H230   1.082       .  S
C228       C1632   1.483       .  S
C228        C229   1.387       .  A
C229        H231   1.082       .  S
N232        N233   1.321       .  A
N232        C236   1.346       .  A
N233        C234   1.342       .  A
C234        C235   1.381       .  A
C234        H237   1.082       .  S
C235       C1248   1.474       .  S
C235        C236   1.388       .  A
C236        H238   1.082       .  S
N239        N240   1.323       .  A
N239        C243   1.346       .  A
N239       Cu247   2.079       .  S
N240        C241   1.343       .  A
N240       Cu246   2.071       .  S
C241        C242   1.383       .  A
C241        H244   1.081       .  S
C242       C1200   1.474       .  S
C242        C243   1.385       .  A
C243        H245   1.082       .  S
Cu246       N249   2.071       .  S
Cu247       N257   2.078       .  S
Cu248       N250   2.064       .  S
Cu248       N256   2.064       .  S
N249        N250   1.320       .  A
N249        C253   1.345       .  A
N250        C251   1.343       .  A
C251        C252   1.383       .  A
C251        H254   1.082       .  S
C252       C1219   1.474       .  S
C252        C253   1.386       .  A
C253        H255   1.082       .  S
N256        N257   1.322       .  A
N256        C260   1.342       .  A
N257        C258   1.347       .  A
C258        C259   1.387       .  A
C258        H261   1.082       .  S
C259       C1251   1.474       .  S
C259        C260   1.381       .  A
C260        H262   1.082       .  S
O263       Cu271   2.004       .  S
O263        C273   1.277       .  A
O264       Cu271   2.008       .  S
O264        C274   1.278       .  A
O265       Cu271   2.007       .  S
O265        C275   1.277       .  A
O266       Cu271   2.008       .  S
O266        C276   1.278       .  A
O267       Cu272   2.020       .  S
O267        C276   1.279       .  A
O268       Cu272   2.017       .  S
O268        C275   1.279       .  A
O269       Cu272   2.012       .  S
O269        C274   1.277       .  A
O270       Cu272   2.014       .  S
O270        C273   1.278       .  A
Cu271      Cu272   2.374       .  S
C273       C1216   1.471       .  S
C274       C1171   1.472       .  S
C275       C1267   1.474       .  S
C276       C1187   1.475       .  S
O277       Cu285   2.008       .  S
O277        C287   1.278       .  A
O278       Cu285   2.007       .  S
O278        C288   1.277       .  A
O279       Cu285   2.009       .  S
O279        C289   1.278       .  A
O280       Cu285   2.009       .  S
O280        C290   1.278       .  A
O281       Cu286   2.009       .  S
O281        C290   1.278       .  A
O282       Cu286   2.008       .  S
O282        C289   1.278       .  A
O283       Cu286   2.009       .  S
O283        C288   1.278       .  A
O284       Cu286   2.011       .  S
O284        C287   1.278       .  A
Cu285      Cu286   2.375       .  S
C287       C1440   1.472       .  S
C288       C1139   1.471       .  S
C289       C1203   1.471       .  S
C290       C1155   1.472       .  S
N291        N292   1.321       .  A
N291        C295   1.347       .  A
N291       Cu299   2.079       .  S
N292        C293   1.342       .  A
N292       Cu298   2.064       .  S
C293        C294   1.382       .  A
C293        H296   1.082       .  S
C294       C1168   1.475       .  S
C294        C295   1.387       .  A
C295        H297   1.082       .  S
Cu298       N301   2.063       .  S
Cu299       N309   2.080       .  S
Cu300       N302   2.070       .  S
Cu300       N308   2.071       .  S
N301        N302   1.321       .  A
N301        C305   1.341       .  A
N302        C303   1.346       .  A
C303        C304   1.385       .  A
C303        H306   1.082       .  S
C304       C1683   1.471       .  S
C304        C305   1.382       .  A
C305        H307   1.082       .  S
N308        N309   1.323       .  A
N308        C312   1.345       .  A
N309        C310   1.344       .  A
C310        C311   1.384       .  A
C310        H313   1.082       .  S
C311       C1120   1.474       .  S
C311        C312   1.383       .  A
C312        H314   1.081       .  S
N315        N316   1.321       .  A
N315        C319   1.348       .  A
N315       Cu323   2.080       .  S
N316        C317   1.341       .  A
N316       Cu322   2.063       .  S
C317        C318   1.381       .  A
C317        H320   1.082       .  S
C318       C1107   1.475       .  S
C318        C319   1.388       .  A
C319        H321   1.082       .  S
Cu322       N325   2.063       .  S
Cu323       N333   2.080       .  S
Cu324       N326   2.076       .  S
Cu324       N332   2.077       .  S
N325        N326   1.321       .  A
N325        C329   1.342       .  A
N326        C327   1.347       .  A
C327        C328   1.387       .  A
C327        H330   1.082       .  S
C328       C1411   1.473       .  S
C328        C329   1.382       .  A
C329        H331   1.082       .  S
N332        N333   1.324       .  A
N332        C336   1.344       .  A
N333        C334   1.346       .  A
C334        C335   1.384       .  A
C334        H337   1.082       .  S
C335       C1123   1.476       .  S
C335        C336   1.384       .  A
C336        H338   1.081       .  S
O339       Cu347   2.019       .  S
O339        C349   1.279       .  A
O340       Cu347   2.018       .  S
O340        C350   1.279       .  A
O341       Cu347   2.000       .  S
O341        C351   1.276       .  A
O342       Cu347   1.996       .  S
O342        C352   1.276       .  A
O343       Cu348   2.023       .  S
O343        C352   1.279       .  A
O344       Cu348   2.021       .  S
O344        C351   1.280       .  A
O345       Cu348   2.006       .  S
O345        C350   1.277       .  A
O346       Cu348   2.004       .  S
O346        C349   1.277       .  A
Cu347      Cu348   2.374       .  S
C349       C1088   1.473       .  S
C350       C1072   1.473       .  S
C351       C1104   1.473       .  S
C352       C1056   1.472       .  S
N353        N354   1.323       .  A
N353        C357   1.346       .  A
N353       Cu361   2.083       .  S
N354        C355   1.347       .  A
N354       Cu360   2.081       .  S
C355        C356   1.386       .  A
C355        H358   1.082       .  S
C356       C1619   1.479       .  S
C356        C357   1.385       .  A
C357        H359   1.082       .  S
Cu360       N363   2.081       .  S
Cu361       N371   2.082       .  S
Cu362       N364   2.078       .  S
Cu362       N370   2.078       .  S
N363        N364   1.323       .  A
N363        C367   1.346       .  A
N364        C365   1.345       .  A
C365        C366   1.384       .  A
C365        H368   1.082       .  S
C366       C1651   1.477       .  S
C366        C367   1.386       .  A
C367        H369   1.082       .  S
N370        N371   1.322       .  A
N370        C374   1.347       .  A
N371        C372   1.346       .  A
C372        C373   1.387       .  A
C372        H375   1.081       .  S
C373       C1040   1.481       .  S
C373        C374   1.386       .  A
C374        H376   1.082       .  S
N377        N378   1.323       .  A
N377        C381   1.344       .  A
N377       Cu385   2.077       .  S
N378        C379   1.347       .  A
N378       Cu384   2.081       .  S
C379        C380   1.386       .  A
C379        H382   1.082       .  S
C380       C1091   1.475       .  S
C380        C381   1.383       .  A
C381        H383   1.082       .  S
Cu384       N387   2.081       .  S
Cu385       N395   2.078       .  S
Cu386       N388   2.076       .  S
Cu386       N394   2.077       .  S
N387        N388   1.323       .  A
N387        C391   1.346       .  A
N388        C389   1.345       .  A
C389        C390   1.383       .  A
C389        H392   1.082       .  S
C390       C1024   1.476       .  S
C390        C391   1.386       .  A
C391        H393   1.082       .  S
N394        N395   1.321       .  A
N394        C398   1.345       .  A
N395        C396   1.347       .  A
C396        C397   1.387       .  A
C396        H399   1.081       .  S
C397       C1043   1.480       .  S
C397        C398   1.386       .  A
C398        H400   1.082       .  S
N401        N402   1.322       .  A
N401        C405   1.348       .  A
N401       Cu409   2.085       .  S
N402        C403   1.342       .  A
N402       Cu408   2.065       .  S
C403        C404   1.381       .  A
C403        H406   1.082       .  S
C404       C1584   1.476       .  S
C404        C405   1.388       .  A
C405        H407   1.082       .  S
Cu408       N411   2.065       .  S
Cu409       N419   2.086       .  S
Cu410       N412   2.079       .  S
Cu410       N418   2.081       .  S
N411        N412   1.321       .  A
N411        C415   1.343       .  A
N412        C413   1.347       .  A
C413        C414   1.387       .  A
C413        H416   1.082       .  S
C414        C992   1.476       .  S
C414        C415   1.383       .  A
C415        H417   1.082       .  S
N418        N419   1.324       .  A
N418        C422   1.345       .  A
N419        C420   1.347       .  A
C420        C421   1.387       .  A
C420        H423   1.081       .  S
C421       C1011   1.479       .  S
C421        C422   1.384       .  A
C422        H424   1.082       .  S
N425        N426   1.322       .  A
N425        C429   1.347       .  A
N425       Cu433   2.082       .  S
N426        C427   1.344       .  A
N426       Cu432   2.072       .  S
C427        C428   1.383       .  A
C427        H430   1.082       .  S
C428        C979   1.477       .  S
C428        C429   1.387       .  A
C429        H431   1.082       .  S
Cu432       N435   2.072       .  S
Cu433       N443   2.082       .  S
Cu434       N436   2.079       .  S
Cu434       N442   2.079       .  S
N435        N436   1.321       .  A
N435        C439   1.345       .  A
N436        C437   1.346       .  A
C437        C438   1.386       .  A
C437        H440   1.082       .  S
C438        C963   1.477       .  S
C438        C439   1.385       .  A
C439        H441   1.081       .  S
N442        N443   1.323       .  A
N442        C446   1.346       .  A
N443        C444   1.346       .  A
C444        C445   1.386       .  A
C444        H447   1.082       .  S
C445       C1008   1.479       .  S
C445        C446   1.386       .  A
C446        H448   1.081       .  S
O449       Cu457   2.002       .  S
O449        C459   1.277       .  A
O450       Cu457   2.004       .  S
O450        C460   1.277       .  A
O451       Cu457   2.010       .  S
O451        C461   1.278       .  A
O452       Cu457   2.012       .  S
O452        C462   1.278       .  A
O453       Cu458   2.011       .  S
O453        C462   1.278       .  A
O454       Cu458   2.014       .  S
O454        C461   1.278       .  A
O455       Cu458   2.018       .  S
O455        C460   1.279       .  A
O456       Cu458   2.014       .  S
O456        C459   1.279       .  A
Cu457      Cu458   2.374       .  S
C459       C1488   1.471       .  S
C460       C1027   1.473       .  S
C461       C1363   1.474       .  S
C462        C976   1.474       .  S
N463        N464   1.323       .  A
N463        C467   1.348       .  A
N463       Cu471   2.082       .  S
N464        C465   1.342       .  A
N464       Cu470   2.074       .  S
C465        C466   1.384       .  A
C465        H468   1.081       .  S
C466        C928   1.476       .  S
C466        C467   1.385       .  A
C467        H469   1.082       .  S
Cu470       N473   2.074       .  S
Cu471       N481   2.083       .  S
Cu472       N474   2.069       .  S
Cu472       N480   2.070       .  S
N473        N474   1.320       .  A
N473        C477   1.346       .  A
N474        C475   1.344       .  A
C475        C476   1.385       .  A
C475        H478   1.082       .  S
C476       C1184   1.476       .  S
C476        C477   1.386       .  A
C477        H479   1.082       .  S
N480        N481   1.322       .  A
N480        C484   1.344       .  A
N481        C482   1.347       .  A
C482        C483   1.388       .  A
C482        H485   1.082       .  S
C483        C947   1.477       .  S
C483        C484   1.382       .  A
C484        H486   1.082       .  S
N487        N488   1.322       .  A
N487        C491   1.347       .  A
N487       Cu495   2.084       .  S
N488        C489   1.343       .  A
N488       Cu494   2.069       .  S
C489        C490   1.382       .  A
C489        H492   1.082       .  S
C490       C1395   1.476       .  S
C490        C491   1.387       .  A
C491        H493   1.082       .  S
Cu494       N497   2.069       .  S
Cu495       N505   2.084       .  S
Cu496       N498   2.082       .  S
Cu496       N504   2.082       .  S
N497        N498   1.321       .  A
N497        C501   1.344       .  A
N498        C499   1.347       .  A
C499        C500   1.387       .  A
C499        H502   1.082       .  S
C500        C912   1.477       .  S
C500        C501   1.383       .  A
C501        H503   1.082       .  S
N504        N505   1.323       .  A
N504        C508   1.344       .  A
N505        C506   1.348       .  A
C506        C507   1.387       .  A
C506        H509   1.082       .  S
C507        C944   1.479       .  S
C507        C508   1.384       .  A
C508        H510   1.082       .  S
N511        N512   1.321       .  A
N511        C515   1.344       .  A
N511       Cu519   2.071       .  S
N512        C513   1.345       .  A
N512       Cu518   2.070       .  S
C513        C514   1.384       .  A
C513        H516   1.082       .  S
C514       C1315   1.473       .  S
C514        C515   1.384       .  A
C515        H517   1.082       .  S
Cu518       N521   2.071       .  S
Cu519       N529   2.073       .  S
Cu520       N522   2.083       .  S
Cu520       N528   2.083       .  S
N521        N522   1.322       .  A
N521        C525   1.343       .  A
N522        C523   1.347       .  A
C523        C524   1.386       .  A
C523        H526   1.082       .  S
C524       C1664   1.477       .  S
C524        C525   1.384       .  A
C525        H527   1.081       .  S
N528        N529   1.322       .  A
N528        C532   1.347       .  A
N529        C530   1.345       .  A
C530        C531   1.384       .  A
C530        H533   1.082       .  S
C531        C896   1.479       .  S
C531        C532   1.387       .  A
C532        H534   1.082       .  S
N535        N536   1.321       .  A
N535        C539   1.345       .  A
N535       Cu543   2.079       .  S
N536        C537   1.344       .  A
N536       Cu542   2.063       .  S
C537        C538   1.384       .  A
C537        H540   1.081       .  S
C538        C880   1.475       .  S
C538        C539   1.386       .  A
C539        H541   1.082       .  S
Cu542       N545   2.063       .  S
Cu543       N553   2.080       .  S
Cu544       N546   2.085       .  S
Cu544       N552   2.086       .  S
N545        N546   1.322       .  A
N545        C549   1.343       .  A
N546        C547   1.347       .  A
C547        C548   1.386       .  A
C547        H550   1.082       .  S
C548       C1136   1.475       .  S
C548        C549   1.383       .  A
C549        H551   1.082       .  S
N552        N553   1.323       .  A
N552        C556   1.347       .  A
N553        C554   1.346       .  A
C554        C555   1.385       .  A
C554        H557   1.082       .  S
C555        C899   1.480       .  S
C555        C556   1.387       .  A
C556        H558   1.082       .  S
O559       Cu567   2.010       .  S
O559        C569   1.278       .  A
O560       Cu567   2.014       .  S
O560        C570   1.278       .  A
O561       Cu567   2.015       .  S
O561        C571   1.279       .  A
O562       Cu567   2.015       .  S
O562        C572   1.278       .  A
O563       Cu568   2.003       .  S
O563        C572   1.277       .  A
O564       Cu568   2.010       .  S
O564        C571   1.278       .  A
O565       Cu568   2.010       .  S
O565        C570   1.278       .  A
O566       Cu568   2.008       .  S
O566        C569   1.277       .  A
Cu567      Cu568   2.374       .  S
C569        C883   1.471       .  S
C570        C995   1.474       .  S
C571        C867   1.475       .  S
C572        C931   1.471       .  S
N573        N574   1.322       .  A
N573        C577   1.345       .  A
N573       Cu581   2.075       .  S
N574        C575   1.346       .  A
N574       Cu580   2.078       .  S
C575        C576   1.386       .  A
C575        H578   1.082       .  S
C576       C1539   1.477       .  S
C576        C577   1.384       .  A
C577        H579   1.082       .  S
Cu580       N583   2.077       .  S
Cu581       N591   2.074       .  S
Cu582       N584   2.071       .  S
Cu582       N590   2.071       .  S
N583        N584   1.322       .  A
N583        C587   1.345       .  A
N584        C585   1.345       .  A
C585        C586   1.384       .  A
C585        H588   1.082       .  S
C586       C1699   1.475       .  S
C586        C587   1.385       .  A
C587        H589   1.082       .  S
N590        N591   1.322       .  A
N590        C594   1.343       .  A
N591        C592   1.346       .  A
C592        C593   1.385       .  A
C592        H595   1.082       .  S
C593        C848   1.474       .  S
C593        C594   1.383       .  A
C594        H596   1.082       .  S
N597        N598   1.323       .  A
N597        C601   1.345       .  A
N597       Cu605   2.080       .  S
N598        C599   1.346       .  A
N598       Cu604   2.080       .  S
C599        C600   1.386       .  A
C599        H602   1.082       .  S
C600        C864   1.477       .  S
C600        C601   1.384       .  A
C601        H603   1.082       .  S
Cu604       N607   2.079       .  S
Cu605       N615   2.080       .  S
Cu606       N608   2.063       .  S
Cu606       N614   2.063       .  S
N607        N608   1.321       .  A
N607        C611   1.346       .  A
N608        C609   1.343       .  A
C609        C610   1.382       .  A
C609        H612   1.082       .  S
C610        C832   1.474       .  S
C610        C611   1.386       .  A
C611        H613   1.082       .  S
N614        N615   1.321       .  A
N614        C618   1.342       .  A
N615        C616   1.347       .  A
C616        C617   1.387       .  A
C616        H619   1.082       .  S
C617        C851   1.474       .  S
C617        C618   1.382       .  A
C618        H620   1.082       .  S
O621       Cu629   2.016       .  S
O621        C631   1.279       .  A
O622       Cu629   2.016       .  S
O622        C632   1.279       .  A
O623       Cu629   2.014       .  S
O623        C633   1.278       .  A
O624       Cu629   2.012       .  S
O624        C634   1.278       .  A
O625       Cu630   2.004       .  S
O625        C634   1.278       .  A
O626       Cu630   2.005       .  S
O626        C633   1.277       .  A
O627       Cu630   1.999       .  S
O627        C632   1.276       .  A
O628       Cu630   1.996       .  S
O628        C631   1.276       .  A
Cu629      Cu630   2.375       .  S
C631       C1472   1.469       .  S
C632        C835   1.470       .  S
C633       C1232   1.471       .  S
C634        C819   1.471       .  S
N635        N636   1.322       .  A
N635        C639   1.347       .  A
N635       Cu643   2.082       .  S
N636        C637   1.344       .  A
N636       Cu642   2.069       .  S
C637        C638   1.384       .  A
C637        H640   1.082       .  S
C638       C1059   1.476       .  S
C638        C639   1.386       .  A
C639        H641   1.082       .  S
Cu642       N645   2.070       .  S
Cu643       N653   2.083       .  S
Cu644       N646   2.085       .  S
Cu644       N652   2.085       .  S
N645        N646   1.321       .  A
N645        C649   1.344       .  A
N646        C647   1.348       .  A
C647        C648   1.388       .  A
C647        H650   1.082       .  S
C648       C1571   1.479       .  S
C648        C649   1.384       .  A
C649        H651   1.082       .  S
N652        N653   1.323       .  A
N652        C656   1.345       .  A
N653        C654   1.347       .  A
C654        C655   1.386       .  A
C654        H657   1.082       .  S
C655        C800   1.480       .  S
C655        C656   1.385       .  A
C656        H658   1.082       .  S
N659        N660   1.321       .  A
N659        C663   1.348       .  A
N659       Cu667   2.085       .  S
N660        C661   1.342       .  A
N660       Cu666   2.060       .  S
C661        C662   1.381       .  A
C661        H664   1.082       .  S
C662        C816   1.475       .  S
C662        C663   1.388       .  A
C663        H665   1.082       .  S
Cu666       N669   2.060       .  S
Cu667       N677   2.086       .  S
Cu668       N670   2.078       .  S
Cu668       N676   2.080       .  S
N669        N670   1.321       .  A
N669        C673   1.342       .  A
N670        C671   1.347       .  A
C671        C672   1.387       .  A
C671        H674   1.082       .  S
C672        C784   1.474       .  S
C672        C673   1.381       .  A
C673        H675   1.082       .  S
N676        N677   1.324       .  A
N676        C680   1.345       .  A
N677        C678   1.347       .  A
C678        C679   1.386       .  A
C678        H681   1.082       .  S
C679        C803   1.479       .  S
C679        C680   1.384       .  A
C680        H682   1.082       .  S
N683        N684   1.321       .  A
N683        C687   1.347       .  A
N683       Cu691   2.083       .  S
N684        C685   1.344       .  A
N684       Cu690   2.069       .  S
C685        C686   1.385       .  A
C685        H688   1.081       .  S
C686       C1075   1.478       .  S
C686        C687   1.387       .  A
C687        H689   1.082       .  S
Cu690       N693   2.069       .  S
Cu691       N701   2.083       .  S
Cu692       N694   2.073       .  S
Cu692       N700   2.074       .  S
N693        N694   1.322       .  A
N693        C697   1.342       .  A
N694        C695   1.346       .  A
C695        C696   1.385       .  A
C695        H698   1.082       .  S
C696       C1296   1.473       .  S
C696        C697   1.383       .  A
C697        H699   1.082       .  S
N700        N701   1.323       .  A
N700        C704   1.345       .  A
N701        C702   1.346       .  A
C702        C703   1.385       .  A
C702        H705   1.082       .  S
C703        C768   1.477       .  S
C703        C704   1.385       .  A
C704        H706   1.082       .  S
N707        N708   1.322       .  A
N707        C711   1.345       .  A
N707       Cu715   2.072       .  S
N708        C709   1.346       .  A
N708       Cu714   2.081       .  S
C709        C710   1.386       .  A
C709        H712   1.082       .  S
C710       C1152   1.476       .  S
C710        C711   1.383       .  A
C711        H713   1.082       .  S
Cu714       N717   2.081       .  S
Cu715       N725   2.073       .  S
Cu716       N718   2.075       .  S
Cu716       N724   2.075       .  S
N717        N718   1.323       .  A
N717        C721   1.346       .  A
N718        C719   1.345       .  A
C719        C720   1.383       .  A
C719        H722   1.082       .  S
C720        C752   1.477       .  S
C720        C721   1.386       .  A
C721        H723   1.082       .  S
N724        N725   1.322       .  A
N724        C728   1.346       .  A
N725        C726   1.344       .  A
C726        C727   1.384       .  A
C726        H729   1.082       .  S
C727        C771   1.476       .  S
C727        C728   1.386       .  A
C728        H730   1.082       .  S
O731       Cu739   2.001       .  S
O731        C741   1.276       .  A
O732       Cu739   1.999       .  S
O732        C742   1.276       .  A
O733       Cu739   2.021       .  S
O733        C743   1.279       .  A
O734       Cu739   2.014       .  S
O734        C744   1.279       .  A
O735       Cu740   2.005       .  S
O735        C744   1.277       .  A
O736       Cu740   2.005       .  S
O736        C743   1.277       .  A
O737       Cu740   2.023       .  S
O737        C742   1.280       .  A
O738       Cu740   2.020       .  S
O738        C741   1.279       .  A
Cu739      Cu740   2.374       .  S
C741        C960   1.471       .  S
C742        C755   1.473       .  S
C743        C915   1.474       .  S
C744        C787   1.471       .  S
C745        C750   1.386       .  A
C745        C746   1.403       .  A
C745        S751   1.707       .  A
C746        C747   1.404       .  A
C746        H757   1.083       .  S
C747        C756   1.373       .  A
C747        C748   1.387       .  A
C748        C749   1.401       .  A
C748        S754   1.704       .  A
C749        C750   1.401       .  A
C749        H758   1.083       .  S
C750        C753   1.371       .  A
S751        C752   1.725       .  A
C752        C753   1.387       .  A
C753        H759   1.082       .  S
S754        C755   1.723       .  A
C755        C756   1.388       .  A
C756        H760   1.083       .  S
C761        C766   1.386       .  A
C761        C762   1.402       .  A
C761        S767   1.707       .  A
C762        C763   1.403   1_655  A
C762        H773   1.083   1_655  S
C763        C772   1.371       .  A
C763        C764   1.387       .  A
C764        C765   1.401   1_455  A
C764        S770   1.706       .  A
C765        C766   1.402       .  A
C765        H774   1.083       .  S
C766        C769   1.370       .  A
S767        C768   1.724       .  A
C768        C769   1.388       .  A
C769        H775   1.082       .  S
S770        C771   1.724       .  A
C771        C772   1.388       .  A
C772        H776   1.083       .  S
C777        C782   1.387       .  A
C777        C778   1.400       .  A
C777        S783   1.703       .  A
C778        C779   1.401       .  A
C778        H789   1.083       .  S
C779        C788   1.370       .  A
C779        C780   1.387       .  A
C780        C781   1.402       .  A
C780        S786   1.706       .  A
C781        C782   1.402       .  A
C781        H790   1.083       .  S
C782        C785   1.371       .  A
S783        C784   1.724       .  A
C784        C785   1.387       .  A
C785        H791   1.083       .  S
S786        C787   1.724       .  A
C787        C788   1.386       .  A
C788        H792   1.083       .  S
C793        C798   1.386       .  A
C793        C794   1.402       .  A
C793        S799   1.707       .  A
C794        C795   1.403   1_655  A
C794        H805   1.083       .  S
C795        C804   1.372       .  A
C795        C796   1.386       .  A
C796        C797   1.404   1_455  A
C796        S802   1.708       .  A
C797        C798   1.404       .  A
C797        H806   1.083       .  S
C798        C801   1.374       .  A
S799        C800   1.724       .  A
C800        C801   1.389       .  A
C801        H807   1.082       .  S
S802        C803   1.725       .  A
C803        C804   1.388       .  A
C804        H808   1.082       .  S
C809        C814   1.387       .  A
C809        C810   1.399       .  A
C809        S815   1.703       .  A
C810        C811   1.400       .  A
C810        H821   1.083       .  S
C811        C820   1.368       .  A
C811        C812   1.387       .  A
C812        C813   1.403       .  A
C812        S818   1.709       .  A
C813        C814   1.404       .  A
C813        H822   1.083       .  S
C814        C817   1.372       .  A
S815        C816   1.724       .  A
C816        C817   1.387       .  A
C817        H823   1.083       .  S
S818        C819   1.724       .  A
C819        C820   1.386       .  A
C820        H824   1.083       .  S
C825        C830   1.387       .  A
C825        C826   1.402       .  A
C825        S831   1.706       .  A
C826        C827   1.402       .  A
C826        H837   1.083       .  S
C827        C836   1.370       .  A
C827        C828   1.387       .  A
C828        C829   1.400       .  A
C828        S834   1.705       .  A
C829        C830   1.401       .  A
C829        H838   1.083       .  S
C830        C833   1.369       .  A
S831        C832   1.724       .  A
C832        C833   1.386       .  A
C833        H839   1.082       .  S
S834        C835   1.723       .  A
C835        C836   1.386       .  A
C836        H840   1.083       .  S
C841        C846   1.387       .  A
C841        C842   1.401       .  A
C841        S847   1.704       .  A
C842        C843   1.401   1_655  A
C842        H853   1.083       .  S
C843        C852   1.370       .  A
C843        C844   1.387       .  A
C844        C845   1.401   1_455  A
C844        S850   1.705       .  A
C845        C846   1.402       .  A
C845        H854   1.083       .  S
C846        C849   1.371       .  A
S847        C848   1.723       .  A
C848        C849   1.387       .  A
C849        H855   1.083       .  S
S850        C851   1.724       .  A
C851        C852   1.386       .  A
C852        H856   1.083       .  S
C857        C862   1.386       .  A
C857        C858   1.403       .  A
C857        S863   1.708       .  A
C858        C859   1.403       .  A
C858        H869   1.083       .  S
C859        C868   1.372       .  A
C859        C860   1.387       .  A
C860        C861   1.402       .  A
C860        S866   1.707       .  A
C861        C862   1.403       .  A
C861        H870   1.083       .  S
C862        C865   1.371       .  A
S863        C864   1.724       .  A
C864        C865   1.388       .  A
C865        H871   1.082       .  S
S866        C867   1.724       .  A
C867        C868   1.388       .  A
C868        H872   1.083       .  S
C873        C878   1.386       .  A
C873        C874   1.400       .  A
C873        S879   1.705       .  A
C874        C875   1.401       .  A
C874        H885   1.083       .  S
C875        C884   1.369       .  A
C875        C876   1.387       .  A
C876        C877   1.402       .  A
C876        S882   1.708       .  A
C877        C878   1.403       .  A
C877        H886   1.083       .  S
C878        C881   1.370       .  A
S879        C880   1.722       .  A
C880        C881   1.388       .  A
C881        H887   1.082       .  S
S882        C883   1.724       .  A
C883        C884   1.385       .  A
C884        H888   1.083       .  S
C889        C894   1.386       .  A
C889        C890   1.403       .  A
C889        S895   1.707       .  A
C890        C891   1.403   1_655  A
C890        H901   1.083       .  S
C891        C900   1.373       .  A
C891        C892   1.386       .  A
C892        C893   1.403   1_455  A
C892        S898   1.708       .  A
C893        C894   1.404       .  A
C893        H902   1.083       .  S
C894        C897   1.373       .  A
S895        C896   1.725       .  A
C896        C897   1.388       .  A
C897        H903   1.082       .  S
S898        C899   1.725       .  A
C899        C900   1.388       .  A
C900        H904   1.082       .  S
C905        C910   1.387       .  A
C905        C906   1.403       .  A
C905        S911   1.707       .  A
C906        C907   1.403       .  A
C906        H917   1.083       .  S
C907        C916   1.373       .  A
C907        C908   1.387       .  A
C908        C909   1.402       .  A
C908        S914   1.706       .  A
C909        C910   1.403       .  A
C909        H918   1.083       .  S
C910        C913   1.372       .  A
S911        C912   1.725       .  A
C912        C913   1.387       .  A
C913        H919   1.083       .  S
S914        C915   1.724       .  A
C915        C916   1.387       .  A
C916        H920   1.083       .  S
C921        C926   1.386       .  A
C921        C922   1.404       .  A
C921        S927   1.711       .  A
C922        C923   1.405       .  A
C922        H933   1.083       .  S
C923        C932   1.373       .  A
C923        C924   1.387       .  A
C924        C925   1.398       .  A
C924        S930   1.703       .  A
C925        C926   1.399       .  A
C925        H934   1.083       .  S
C926        C929   1.366       .  A
S927        C928   1.726       .  A
C928        C929   1.386       .  A
C929        H935   1.082       .  S
S930        C931   1.721       .  A
C931        C932   1.389       .  A
C932        H936   1.083       .  S
C937        C942   1.386       .  A
C937        C938   1.401   1_554  A
C937        S943   1.705       .  A
C938        C939   1.401       .  A
C938        H949   1.083       .  S
C939        C948   1.371       .  A
C939        C940   1.386       .  A
C940        C941   1.404       .  A
C940        S946   1.708       .  A
C941        C942   1.404   1_556  A
C941        H950   1.083       .  S
C942        C945   1.374       .  A
S943        C944   1.724       .  A
C944        C945   1.389       .  A
C945        H951   1.082       .  S
S946        C947   1.726       .  A
C947        C948   1.386       .  A
C948        H952   1.082       .  S
C953        C958   1.387       .  A
C953        C954   1.401       .  A
C953        S959   1.706       .  A
C954        C955   1.402       .  A
C954        H965   1.083       .  S
C955        C964   1.370       .  A
C955        C956   1.386       .  A
C956        C957   1.402       .  A
C956        S962   1.707       .  A
C957        C958   1.403       .  A
C957        H966   1.083       .  S
C958        C961   1.372       .  A
S959        C960   1.723       .  A
C960        C961   1.386       .  A
C961        H967   1.083       .  S
S962        C963   1.724       .  A
C963        C964   1.388       .  A
C964        H968   1.082       .  S
C969        C974   1.387       .  A
C969        C970   1.403       .  A
C969        S975   1.708       .  A
C970        C971   1.403       .  A
C970        H981   1.083       .  S
C971        C980   1.372       .  A
C971        C972   1.387       .  A
C972        C973   1.401       .  A
C972        S978   1.706       .  A
C973        C974   1.402       .  A
C973        H982   1.083       .  S
C974        C977   1.371       .  A
S975        C976   1.724       .  A
C976        C977   1.387       .  A
C977        H983   1.083       .  S
S978        C979   1.724       .  A
C979        C980   1.388       .  A
C980        H984   1.082       .  S
C985        C990   1.387       .  A
C985        C986   1.401       .  A
C985        S991   1.706       .  A
C986        C987   1.402       .  A
C986        H997   1.083       .  S
C987        C996   1.370       .  A
C987        C988   1.387       .  A
C988        C989   1.403       .  A
C988        S994   1.709       .  A
C989        C990   1.404       .  A
C989        H998   1.083       .  S
C990        C993   1.372       .  A
S991        C992   1.724       .  A
C992        C993   1.388       .  A
C993        H999   1.082       .  S
S994        C995   1.725       .  A
C995        C996   1.387       .  A
C996       H1000   1.083       .  S
C1001      C1006   1.386       .  A
C1001      C1002   1.403   1_554  A
C1001      S1007   1.708       .  A
C1002      C1003   1.404       .  A
C1002      H1013   1.083       .  S
C1003      C1012   1.373       .  A
C1003      C1004   1.386       .  A
C1004      C1005   1.402       .  A
C1004      S1010   1.707       .  A
C1005      C1006   1.403   1_556  A
C1005      H1014   1.083       .  S
C1006      C1009   1.372       .  A
S1007      C1008   1.725       .  A
C1008      C1009   1.388       .  A
C1009      H1015   1.082       .  S
S1010      C1011   1.725       .  A
C1011      C1012   1.388       .  A
C1012      H1016   1.082       .  S
C1017      C1022   1.387       .  A
C1017      C1018   1.403       .  A
C1017      S1023   1.707       .  A
C1018      C1019   1.403       .  A
C1018      H1029   1.083       .  S
C1019      C1028   1.372       .  A
C1019      C1020   1.387       .  A
C1020      C1021   1.401       .  A
C1020      S1026   1.705       .  A
C1021      C1022   1.402       .  A
C1021      H1030   1.083       .  S
C1022      C1025   1.371       .  A
S1023      C1024   1.725       .  A
C1024      C1025   1.387       .  A
C1025      H1031   1.083       .  S
S1026      C1027   1.723       .  A
C1027      C1028   1.387       .  A
C1028      H1032   1.083       .  S
C1033      C1038   1.386       .  A
C1033      C1034   1.405       .  A
C1033      S1039   1.710       .  A
C1034      C1035   1.405   1_556  A
C1034      H1045   1.083   1_556  S
C1035      C1044   1.375       .  A
C1035      C1036   1.386       .  A
C1036      C1037   1.402   1_554  A
C1036      S1042   1.706       .  A
C1037      C1038   1.402       .  A
C1037      H1046   1.083       .  S
C1038      C1041   1.372       .  A
S1039      C1040   1.726       .  A
C1040      C1041   1.388       .  A
C1041      H1047   1.082       .  S
S1042      C1043   1.724       .  A
C1043      C1044   1.390       .  A
C1044      H1048   1.082       .  S
C1049      C1054   1.387       .  A
C1049      C1050   1.402       .  A
C1049      S1055   1.710       .  A
C1050      C1051   1.403       .  A
C1050      H1061   1.083       .  S
C1051      C1060   1.370       .  A
C1051      C1052   1.386       .  A
C1052      C1053   1.401       .  A
C1052      S1058   1.708       .  A
C1053      C1054   1.402       .  A
C1053      H1062   1.083       .  S
C1054      C1057   1.368       .  A
S1055      C1056   1.723       .  A
C1056      C1057   1.387       .  A
C1057      H1063   1.083       .  S
S1058      C1059   1.723       .  A
C1059      C1060   1.388       .  A
C1060      H1064   1.082       .  S
C1065      C1070   1.387       .  A
C1065      C1066   1.401       .  A
C1065      S1071   1.707       .  A
C1066      C1067   1.402       .  A
C1066      H1077   1.083       .  S
C1067      C1076   1.370       .  A
C1067      C1068   1.386       .  A
C1068      C1069   1.403       .  A
C1068      S1074   1.709       .  A
C1069      C1070   1.404       .  A
C1069      H1078   1.083       .  S
C1070      C1073   1.372       .  A
S1071      C1072   1.724       .  A
C1072      C1073   1.387       .  A
C1073      H1079   1.083       .  S
S1074      C1075   1.725       .  A
C1075      C1076   1.388       .  A
C1076      H1080   1.082       .  S
C1081      C1086   1.387       .  A
C1081      C1082   1.402       .  A
C1081      S1087   1.706       .  A
C1082      C1083   1.402       .  A
C1082      H1093   1.083       .  S
C1083      C1092   1.372       .  A
C1083      C1084   1.387       .  A
C1084      C1085   1.402       .  A
C1084      S1090   1.706       .  A
C1085      C1086   1.403       .  A
C1085      H1094   1.083       .  S
C1086      C1089   1.372       .  A
S1087      C1088   1.724       .  A
C1088      C1089   1.387       .  A
C1089      H1095   1.083       .  S
S1090      C1091   1.724       .  A
C1091      C1092   1.387       .  A
C1092      H1096   1.083       .  S
C1097      C1102   1.387       .  A
C1097      C1098   1.402       .  A
C1097      S1103   1.705       .  A
C1098      C1099   1.402       .  A
C1098      H1109   1.083       .  S
C1099      C1108   1.373       .  A
C1099      C1100   1.387       .  A
C1100      C1101   1.402       .  A
C1100      S1106   1.703       .  A
C1101      C1102   1.401       .  A
C1101      H1110   1.083       .  S
C1102      C1105   1.372       .  A
S1103      C1104   1.724       .  A
C1104      C1105   1.386       .  A
C1105      H1111   1.083       .  S
S1106      C1107   1.724       .  A
C1107      C1108   1.387       .  A
C1108      H1112   1.083       .  S
C1113      C1118   1.387       .  A
C1113      C1114   1.399       .  A
C1113      S1119   1.705       .  A
C1114      C1115   1.401   1_556  A
C1114      H1125   1.083       .  S
C1115      C1124   1.368       .  A
C1115      C1116   1.386       .  A
C1116      C1117   1.403   1_554  A
C1116      S1122   1.708       .  A
C1117      C1118   1.404       .  A
C1117      H1126   1.083       .  S
C1118      C1121   1.371       .  A
S1119      C1120   1.722       .  A
C1120      C1121   1.388       .  A
C1121      H1127   1.082       .  S
S1122      C1123   1.725       .  A
C1123      C1124   1.386       .  A
C1124      H1128   1.082       .  S
C1129      C1134   1.386       .  A
C1129      C1130   1.401       .  A
C1129      S1135   1.708       .  A
C1130      C1131   1.402       .  A
C1130      H1141   1.083       .  S
C1131      C1140   1.370       .  A
C1131      C1132   1.387       .  A
C1132      C1133   1.401       .  A
C1132      S1138   1.707       .  A
C1133      C1134   1.402       .  A
C1133      H1142   1.083       .  S
C1134      C1137   1.369       .  A
S1135      C1136   1.723       .  A
C1136      C1137   1.387       .  A
C1137      H1143   1.082       .  S
S1138      C1139   1.723       .  A
C1139      C1140   1.386       .  A
C1140      H1144   1.083       .  S
C1145      C1150   1.387       .  A
C1145      C1146   1.402       .  A
C1145      S1151   1.707       .  A
C1146      C1147   1.402       .  A
C1146      H1157   1.083       .  S
C1147      C1156   1.370       .  A
C1147      C1148   1.387       .  A
C1148      C1149   1.402       .  A
C1148      S1154   1.707       .  A
C1149      C1150   1.402       .  A
C1149      H1158   1.083       .  S
C1150      C1153   1.371       .  A
S1151      C1152   1.724       .  A
C1152      C1153   1.387       .  A
C1153      H1159   1.083       .  S
S1154      C1155   1.723       .  A
C1155      C1156   1.387       .  A
C1156      H1160   1.083       .  S
C1161      C1166   1.387       .  A
C1161      C1162   1.399       .  A
C1161      S1167   1.703       .  A
C1162      C1163   1.400       .  A
C1162      H1173   1.083       .  S
C1163      C1172   1.368       .  A
C1163      C1164   1.387       .  A
C1164      C1165   1.403       .  A
C1164      S1170   1.709       .  A
C1165      C1166   1.404       .  A
C1165      H1174   1.083       .  S
C1166      C1169   1.373       .  A
S1167      C1168   1.723       .  A
C1168      C1169   1.388       .  A
C1169      H1175   1.082       .  S
S1170      C1171   1.725       .  A
C1171      C1172   1.385       .  A
C1172      H1176   1.083       .  S
C1177      C1182   1.386       .  A
C1177      C1178   1.402       .  A
C1177      S1183   1.708       .  A
C1178      C1179   1.403       .  A
C1178      H1189   1.083       .  S
C1179      C1188   1.371       .  A
C1179      C1180   1.387       .  A
C1180      C1181   1.402       .  A
C1180      S1186   1.709       .  A
C1181      C1182   1.403       .  A
C1181      H1190   1.083       .  S
C1182      C1185   1.370       .  A
S1183      C1184   1.724       .  A
C1184      C1185   1.388       .  A
C1185      H1191   1.082       .  S
S1186      C1187   1.724       .  A
C1187      C1188   1.388       .  A
C1188      H1192   1.083       .  S
C1193      C1198   1.386       .  A
C1193      C1194   1.401       .  A
C1193      S1199   1.708       .  A
C1194      C1195   1.403       .  A
C1194      H1205   1.083       .  S
C1195      C1204   1.370       .  A
C1195      C1196   1.387       .  A
C1196      C1197   1.400       .  A
C1196      S1202   1.706       .  A
C1197      C1198   1.401       .  A
C1197      H1206   1.083       .  S
C1198      C1201   1.368       .  A
S1199      C1200   1.724       .  A
C1200      C1201   1.387       .  A
C1201      H1207   1.082       .  S
S1202      C1203   1.722       .  A
C1203      C1204   1.387       .  A
C1204      H1208   1.083       .  S
C1209      C1214   1.387       .  A
C1209      C1210   1.401       .  A
C1209      S1215   1.705       .  A
C1210      C1211   1.401       .  A
C1210      H1221   1.083       .  S
C1211      C1220   1.370       .  A
C1211      C1212   1.387       .  A
C1212      C1213   1.402       .  A
C1212      S1218   1.706       .  A
C1213      C1214   1.402       .  A
C1213      H1222   1.083       .  S
C1214      C1217   1.371       .  A
S1215      C1216   1.723       .  A
C1216      C1217   1.387       .  A
C1217      H1223   1.083       .  S
S1218      C1219   1.724       .  A
C1219      C1220   1.386       .  A
C1220      H1224   1.082       .  S
C1225      C1230   1.387       .  A
C1225      C1226   1.400       .  A
C1225      S1231   1.705       .  A
C1226      C1227   1.401       .  A
C1226      H1237   1.083       .  S
C1227      C1236   1.370       .  A
C1227      C1228   1.387       .  A
C1228      C1229   1.402       .  A
C1228      S1234   1.706       .  A
C1229      C1230   1.403       .  A
C1229      H1238   1.083       .  S
C1230      C1233   1.371       .  A
S1231      C1232   1.723       .  A
C1232      C1233   1.387       .  A
C1233      H1239   1.083       .  S
S1234      C1235   1.725       .  A
C1235      C1236   1.386       .  A
C1236      H1240   1.083       .  S
C1241      C1246   1.387       .  A
C1241      C1242   1.402       .  A
C1241      S1247   1.705       .  A
C1242      C1243   1.402   1_565  A
C1242      H1253   1.083       .  S
C1243      C1252   1.371       .  A
C1243      C1244   1.387       .  A
C1244      C1245   1.400   1_545  A
C1244      S1250   1.703       .  A
C1245      C1246   1.400       .  A
C1245      H1254   1.083       .  S
C1246      C1249   1.369       .  A
S1247      C1248   1.725       .  A
C1248      C1249   1.385       .  A
C1249      H1255   1.083       .  S
S1250      C1251   1.723       .  A
C1251      C1252   1.387       .  A
C1252      H1256   1.082       .  S
C1257      C1262   1.386       .  A
C1257      C1258   1.403       .  A
C1257      S1263   1.710       .  A
C1258      C1259   1.404       .  A
C1258      H1269   1.083       .  S
C1259      C1268   1.371       .  A
C1259      C1260   1.387       .  A
C1260      C1261   1.400       .  A
C1260      S1266   1.708       .  A
C1261      C1262   1.402       .  A
C1261      H1270   1.083       .  S
C1262      C1265   1.368       .  A
S1263      C1264   1.725       .  A
C1264      C1265   1.387       .  A
C1265      H1271   1.083       .  S
S1266      C1267   1.723       .  A
C1267      C1268   1.388       .  A
C1268      H1272   1.083       .  S
C1273      C1278   1.386       .  A
C1273      C1274   1.404   1_565  A
C1273      S1279   1.708       .  A
C1274      C1275   1.404       .  A
C1274      H1285   1.083       .  S
C1275      C1284   1.373       .  A
C1275      C1276   1.386       .  A
C1276      C1277   1.402       .  A
C1276      S1282   1.706       .  A
C1277      C1278   1.402   1_545  A
C1277      H1286   1.083       .  S
C1278      C1281   1.371       .  A
S1279      C1280   1.725       .  A
C1280      C1281   1.388       .  A
C1281      H1287   1.082       .  S
S1282      C1283   1.724       .  A
C1283      C1284   1.389       .  A
C1284      H1288   1.082       .  S
C1289      C1294   1.387       .  A
C1289      C1290   1.397       .  A
C1289      S1295   1.701       .  A
C1290      C1291   1.398       .  A
C1290      H1301   1.083       .  S
C1291      C1300   1.365       .  A
C1291      C1292   1.387       .  A
C1292      C1293   1.404       .  A
C1292      S1298   1.711       .  A
C1293      C1294   1.405       .  A
C1293      H1302   1.083       .  S
C1294      C1297   1.372       .  A
S1295      C1296   1.721       .  A
C1296      C1297   1.389       .  A
C1297      H1303   1.083       .  S
S1298      C1299   1.725       .  A
C1299      C1300   1.384       .  A
C1300      H1304   1.083       .  S
C1305      C1310   1.387       .  A
C1305      C1306   1.400       .  A
C1305      S1311   1.707       .  A
C1306      C1307   1.402       .  A
C1306      H1317   1.083       .  S
C1307      C1316   1.368       .  A
C1307      C1308   1.387       .  A
C1308      C1309   1.401       .  A
C1308      S1314   1.707       .  A
C1309      C1310   1.402       .  A
C1309      H1318   1.083       .  S
C1310      C1313   1.368       .  A
S1311      C1312   1.722       .  A
C1312      C1313   1.386       .  A
C1313      H1319   1.083       .  S
S1314      C1315   1.724       .  A
C1315      C1316   1.386       .  A
C1316      H1320   1.083       .  S
C1321      C1326   1.387       .  A
C1321      C1322   1.399       .  A
C1321      S1327   1.704       .  A
C1322      C1323   1.400       .  A
C1322      H1333   1.083       .  S
C1323      C1332   1.368       .  A
C1323      C1324   1.387       .  A
C1324      C1325   1.401       .  A
C1324      S1330   1.706       .  A
C1325      C1326   1.402       .  A
C1325      H1334   1.083       .  S
C1326      C1329   1.369       .  A
S1327      C1328   1.723       .  A
C1328      C1329   1.387       .  A
C1329      H1335   1.082       .  S
S1330      C1331   1.723       .  A
C1331      C1332   1.385       .  A
C1332      H1336   1.083       .  S
C1337      C1342   1.387       .  A
C1337      C1338   1.402       .  A
C1337      S1343   1.706       .  A
C1338      C1339   1.403       .  A
C1338      H1349   1.083       .  S
C1339      C1348   1.371       .  A
C1339      C1340   1.386       .  A
C1340      C1341   1.402       .  A
C1340      S1346   1.706       .  A
C1341      C1342   1.402       .  A
C1341      H1350   1.083       .  S
C1342      C1345   1.371       .  A
S1343      C1344   1.723       .  A
C1344      C1345   1.386       .  A
C1345      H1351   1.083       .  S
S1346      C1347   1.724       .  A
C1347      C1348   1.388       .  A
C1348      H1352   1.082       .  S
C1353      C1358   1.386       .  A
C1353      C1354   1.403       .  A
C1353      S1359   1.708       .  A
C1354      C1355   1.403       .  A
C1354      H1365   1.083       .  S
C1355      C1364   1.372       .  A
C1355      C1356   1.387       .  A
C1356      C1357   1.401       .  A
C1356      S1362   1.706       .  A
C1357      C1358   1.402       .  A
C1357      H1366   1.083       .  S
C1358      C1361   1.370       .  A
S1359      C1360   1.724       .  A
C1360      C1361   1.387       .  A
C1361      H1367   1.082       .  S
S1362      C1363   1.723       .  A
C1363      C1364   1.388       .  A
C1364      H1368   1.083       .  S
C1369      C1374   1.386       .  A
C1369      C1370   1.403       .  A
C1369      S1375   1.708       .  A
C1370      C1371   1.404   1_565  A
C1370      H1381   1.083   1_565  S
C1371      C1380   1.373       .  A
C1371      C1372   1.386       .  A
C1372      C1373   1.402   1_545  A
C1372      S1378   1.706       .  A
C1373      C1374   1.403       .  A
C1373      H1382   1.083       .  S
C1374      C1377   1.372       .  A
S1375      C1376   1.725       .  A
C1376      C1377   1.388       .  A
C1377      H1383   1.082       .  S
S1378      C1379   1.724       .  A
C1379      C1380   1.388       .  A
C1380      H1384   1.082       .  S
C1385      C1390   1.387       .  A
C1385      C1386   1.403       .  A
C1385      S1391   1.708       .  A
C1386      C1387   1.403       .  A
C1386      H1397   1.083       .  S
C1387      C1396   1.372       .  A
C1387      C1388   1.387       .  A
C1388      C1389   1.401       .  A
C1388      S1394   1.705       .  A
C1389      C1390   1.401       .  A
C1389      H1398   1.083       .  S
C1390      C1393   1.370       .  A
S1391      C1392   1.724       .  A
C1392      C1393   1.386       .  A
C1393      H1399   1.083       .  S
S1394      C1395   1.724       .  A
C1395      C1396   1.388       .  A
C1396      H1400   1.083       .  S
C1401      C1406   1.387       .  A
C1401      C1402   1.402       .  A
C1401      S1407   1.708       .  A
C1402      C1403   1.403       .  A
C1402      H1413   1.083       .  S
C1403      C1412   1.371       .  A
C1403      C1404   1.387       .  A
C1404      C1405   1.400       .  A
C1404      S1410   1.704       .  A
C1405      C1406   1.401       .  A
C1405      H1414   1.083       .  S
C1406      C1409   1.369       .  A
S1407      C1408   1.723       .  A
C1408      C1409   1.386       .  A
C1409      H1415   1.083       .  S
S1410      C1411   1.723       .  A
C1411      C1412   1.387       .  A
C1412      H1416   1.083       .  S
C1417      C1422   1.386       .  A
C1417      C1418   1.402       .  A
C1417      S1423   1.707       .  A
C1418      C1419   1.403       .  A
C1418      H1429   1.083       .  S
C1419      C1428   1.371       .  A
C1419      C1420   1.387       .  A
C1420      C1421   1.403       .  A
C1420      S1426   1.709       .  A
C1421      C1422   1.404       .  A
C1421      H1430   1.083       .  S
C1422      C1425   1.372       .  A
S1423      C1424   1.724       .  A
C1424      C1425   1.388       .  A
C1425      H1431   1.082       .  S
S1426      C1427   1.724       .  A
C1427      C1428   1.387       .  A
C1428      H1432   1.083       .  S
C1433      C1438   1.387       .  A
C1433      C1434   1.400       .  A
C1433      S1439   1.706       .  A
C1434      C1435   1.401       .  A
C1434      H1445   1.083       .  S
C1435      C1444   1.369       .  A
C1435      C1436   1.386       .  A
C1436      C1437   1.402       .  A
C1436      S1442   1.708       .  A
C1437      C1438   1.403       .  A
C1437      H1446   1.083       .  S
C1438      C1441   1.371       .  A
S1439      C1440   1.722       .  A
C1440      C1441   1.387       .  A
C1441      H1447   1.083       .  S
S1442      C1443   1.724       .  A
C1443      C1444   1.387       .  A
C1444      H1448   1.082       .  S
C1449      C1454   1.387       .  A
C1449      C1450   1.400       .  A
C1449      S1455   1.707       .  A
C1450      C1451   1.402       .  A
C1450      H1461   1.083       .  S
C1451      C1460   1.368       .  A
C1451      C1452   1.386       .  A
C1452      C1453   1.402       .  A
C1452      S1458   1.709       .  A
C1453      C1454   1.403       .  A
C1453      H1462   1.083       .  S
C1454      C1457   1.370       .  A
S1455      C1456   1.723       .  A
C1456      C1457   1.387       .  A
C1457      H1463   1.083       .  S
S1458      C1459   1.725       .  A
C1459      C1460   1.386       .  A
C1460      H1464   1.082       .  S
C1465      C1470   1.387       .  A
C1465      C1466   1.400       .  A
C1465      S1471   1.703       .  A
C1466      C1467   1.401       .  A
C1466      H1477   1.083       .  S
C1467      C1476   1.369       .  A
C1467      C1468   1.387       .  A
C1468      C1469   1.402       .  A
C1468      S1474   1.705       .  A
C1469      C1470   1.402       .  A
C1469      H1478   1.083       .  S
C1470      C1473   1.371       .  A
S1471      C1472   1.722       .  A
C1472      C1473   1.386       .  A
C1473      H1479   1.083       .  S
S1474      C1475   1.724       .  A
C1475      C1476   1.386       .  A
C1476      H1480   1.082       .  S
C1481      C1486   1.387       .  A
C1481      C1482   1.400       .  A
C1481      S1487   1.706       .  A
C1482      C1483   1.402       .  A
C1482      H1493   1.083       .  S
C1483      C1492   1.368       .  A
C1483      C1484   1.387       .  A
C1484      C1485   1.402       .  A
C1484      S1490   1.708       .  A
C1485      C1486   1.403       .  A
C1485      H1494   1.083       .  S
C1486      C1489   1.370       .  A
S1487      C1488   1.723       .  A
C1488      C1489   1.387       .  A
C1489      H1495   1.083       .  S
S1490      C1491   1.724       .  A
C1491      C1492   1.387       .  A
C1492      H1496   1.083       .  S
C1497      C1502   1.387       .  A
C1497      C1498   1.400   1_565  A
C1497      S1503   1.705       .  A
C1498      C1499   1.401       .  A
C1498      H1509   1.083       .  S
C1499      C1508   1.368       .  A
C1499      C1500   1.386       .  A
C1500      C1501   1.402       .  A
C1500      S1506   1.708       .  A
C1501      C1502   1.403   1_545  A
C1501      H1510   1.083       .  S
C1502      C1505   1.370       .  A
S1503      C1504   1.724       .  A
C1504      C1505   1.387       .  A
C1505      H1511   1.083       .  S
S1506      C1507   1.724       .  A
C1507      C1508   1.387       .  A
C1508      H1512   1.082       .  S
C1513      C1518   1.386       .  A
C1513      C1514   1.403       .  A
C1513      S1519   1.708       .  A
C1514      C1515   1.404       .  A
C1514      H1525   1.083       .  S
C1515      C1524   1.372       .  A
C1515      C1516   1.387       .  A
C1516      C1517   1.401       .  A
C1516      S1522   1.707       .  A
C1517      C1518   1.402       .  A
C1517      H1526   1.083       .  S
C1518      C1521   1.371       .  A
S1519      C1520   1.725       .  A
C1520      C1521   1.387       .  A
C1521      H1527   1.082       .  S
S1522      C1523   1.723       .  A
C1523      C1524   1.388       .  A
C1524      H1528   1.083       .  S
C1529      C1534   1.387       .  A
C1529      C1530   1.402       .  A
C1529      S1535   1.706       .  A
C1530      C1531   1.402       .  A
C1530      H1541   1.083       .  S
C1531      C1540   1.371       .  A
C1531      C1532   1.386       .  A
C1532      C1533   1.403       .  A
C1532      S1538   1.707       .  A
C1533      C1534   1.403       .  A
C1533      H1542   1.083       .  S
C1534      C1537   1.372       .  A
S1535      C1536   1.724       .  A
C1536      C1537   1.388       .  A
C1537      H1543   1.083       .  S
S1538      C1539   1.724       .  A
C1539      C1540   1.387       .  A
C1540      H1544   1.082       .  S
C1545      C1550   1.387       .  A
C1545      C1546   1.404       .  A
C1545      S1551   1.711       .  A
C1546      C1547   1.405       .  A
C1546      H1557   1.083       .  S
C1547      C1556   1.373       .  A
C1547      C1548   1.387       .  A
C1548      C1549   1.400       .  A
C1548      S1554   1.705       .  A
C1549      C1550   1.401       .  A
C1549      H1558   1.083       .  S
C1550      C1553   1.370       .  A
S1551      C1552   1.725       .  A
C1552      C1553   1.387       .  A
C1553      H1559   1.083       .  S
S1554      C1555   1.723       .  A
C1555      C1556   1.389       .  A
C1556      H1560   1.082       .  S
C1561      C1566   1.387       .  A
C1561      C1562   1.405       .  A
C1561      S1567   1.709       .  A
C1562      C1563   1.405       .  A
C1562      H1573   1.083       .  S
C1563      C1572   1.375       .  A
C1563      C1564   1.387       .  A
C1564      C1565   1.402       .  A
C1564      S1570   1.705       .  A
C1565      C1566   1.402       .  A
C1565      H1574   1.083       .  S
C1566      C1569   1.372       .  A
S1567      C1568   1.726       .  A
C1568      C1569   1.387       .  A
C1569      H1575   1.083       .  S
S1570      C1571   1.724       .  A
C1571      C1572   1.389       .  A
C1572      H1576   1.083       .  S
C1577      C1582   1.387       .  A
C1577      C1578   1.400       .  A
C1577      S1583   1.703       .  A
C1578      C1579   1.401       .  A
C1578      H1589   1.083       .  S
C1579      C1588   1.369       .  A
C1579      C1580   1.387       .  A
C1580      C1581   1.404       .  A
C1580      S1586   1.709       .  A
C1581      C1582   1.404       .  A
C1581      H1590   1.083       .  S
C1582      C1585   1.373       .  A
S1583      C1584   1.724       .  A
C1584      C1585   1.388       .  A
C1585      H1591   1.083       .  S
S1586      C1587   1.725       .  A
C1587      C1588   1.386       .  A
C1588      H1592   1.083       .  S
C1593      C1598   1.387       .  A
C1593      C1594   1.398       .  A
C1593      S1599   1.703       .  A
C1594      C1595   1.399       .  A
C1594      H1605   1.083       .  S
C1595      C1604   1.367       .  A
C1595      C1596   1.386       .  A
C1596      C1597   1.404       .  A
C1596      S1602   1.710       .  A
C1597      C1598   1.405       .  A
C1597      H1606   1.083       .  S
C1598      C1601   1.372       .  A
S1599      C1600   1.721       .  A
C1600      C1601   1.388       .  A
C1601      H1607   1.083       .  S
S1602      C1603   1.725       .  A
C1603      C1604   1.385       .  A
C1604      H1608   1.083       .  S
C1609      C1614   1.387       .  A
C1609      C1610   1.403       .  A
C1609      S1615   1.708       .  A
C1610      C1611   1.404       .  A
C1610      H1621   1.083       .  S
C1611      C1620   1.373       .  A
C1611      C1612   1.386       .  A
C1612      C1613   1.403       .  A
C1612      S1618   1.708       .  A
C1613      C1614   1.404       .  A
C1613      H1622   1.083       .  S
C1614      C1617   1.374       .  A
S1615      C1616   1.725       .  A
C1616      C1617   1.388       .  A
C1617      H1623   1.083       .  S
S1618      C1619   1.725       .  A
C1619      C1620   1.389       .  A
C1620      H1624   1.083       .  S
C1625      C1630   1.386       .  A
C1625      C1626   1.403       .  A
C1625      S1631   1.709       .  A
C1626      C1627   1.404       .  A
C1626      H1637   1.083       .  S
C1627      C1636   1.372       .  A
C1627      C1628   1.386       .  A
C1628      C1629   1.406       .  A
C1628      S1634   1.714       .  A
C1629      C1630   1.407       .  A
C1629      H1638   1.083       .  S
C1630      C1633   1.376       .  A
S1631      C1632   1.725       .  A
C1632      C1633   1.391       .  A
C1633      H1639   1.082       .  S
S1634      C1635   1.726       .  A
C1635      C1636   1.389       .  A
C1636      H1640   1.083       .  S
C1641      C1646   1.387       .  A
C1641      C1642   1.401       .  A
C1641      S1647   1.705       .  A
C1642      C1643   1.402       .  A
C1642      H1653   1.083       .  S
C1643      C1652   1.371       .  A
C1643      C1644   1.386       .  A
C1644      C1645   1.403       .  A
C1644      S1650   1.708       .  A
C1645      C1646   1.403       .  A
C1645      H1654   1.083       .  S
C1646      C1649   1.372       .  A
S1647      C1648   1.724       .  A
C1648      C1649   1.387       .  A
C1649      H1655   1.083       .  S
S1650      C1651   1.725       .  A
C1651      C1652   1.387       .  A
C1652      H1656   1.082       .  S
C1657      C1662   1.386       .  A
C1657      C1658   1.404       .  A
C1657      S1663   1.710       .  A
C1658      C1659   1.405       .  A
C1658      H1669   1.083       .  S
C1659      C1668   1.373       .  A
C1659      C1660   1.387       .  A
C1660      C1661   1.399       .  A
C1660      S1666   1.704       .  A
C1661      C1662   1.400       .  A
C1661      H1670   1.083       .  S
C1662      C1665   1.368       .  A
S1663      C1664   1.725       .  A
C1664      C1665   1.387       .  A
C1665      H1671   1.082       .  S
S1666      C1667   1.722       .  A
C1667      C1668   1.388       .  A
C1668      H1672   1.083       .  S
C1673      C1678   1.387       .  A
C1673      C1674   1.402       .  A
C1673      S1679   1.708       .  A
C1674      C1675   1.403       .  A
C1674      H1685   1.083       .  S
C1675      C1684   1.371       .  A
C1675      C1676   1.387       .  A
C1676      C1677   1.398       .  A
C1676      S1682   1.702       .  A
C1677      C1678   1.399       .  A
C1677      H1686   1.083       .  S
C1678      C1681   1.366       .  A
S1679      C1680   1.724       .  A
C1680      C1681   1.384       .  A
C1681      H1687   1.083       .  S
S1682      C1683   1.722       .  A
C1683      C1684   1.387       .  A
C1684      H1688   1.083       .  S
C1689      C1694   1.387       .  A
C1689      C1690   1.401       .  A
C1689      S1695   1.709       .  A
C1690      C1691   1.403       .  A
C1690      H1701   1.083       .  S
C1691      C1700   1.370       .  A
C1691      C1692   1.386       .  A
C1692      C1693   1.400       .  A
C1692      S1698   1.706       .  A
C1693      C1694   1.402       .  A
C1693      H1702   1.083       .  S
C1694      C1697   1.368       .  A
S1695      C1696   1.723       .  A
C1696      C1697   1.386       .  A
C1697      H1703   1.083       .  S
S1698      C1699   1.724       .  A
C1699      C1700   1.387       .  A
C1700      H1704   1.082       .  S
