geometry optimzed in LAMMPS
_audit_creation_date              2020-12-01 
_audit_creation_method            'lammps2cif' 
_symmetry_space_group_name_H-M    'P1' 
_symmetry_Int_Tables_number       1 
_symmetry_cell_setting            triclinic 
loop_ 
_symmetry_equiv_pos_as_xyz 
  x,y,z 
_cell_length_a                    36.43368109 
_cell_length_b                    35.15935478807661 
_cell_length_c                    35.21034753876647 
_cell_angle_alpha                 89.93606887871317 
_cell_angle_beta                  89.77661423066817 
_cell_angle_gamma                 88.97742135201423 
loop_ 
_atom_site_label 
_atom_site_type_symbol 
_atom_site_fract_x 
_atom_site_fract_y 
_atom_site_fract_z 
_atom_site_charge 
N1          N  0.04308221  0.04560906  0.06454399    -0.06400
N2          N  0.07157696  0.05231958  0.08596344    -0.58500
N3          N  0.45695977  0.06914334  0.04465378    -0.06000
N4          N  0.42738687  0.09054594  0.04776167    -0.60600
N5          N  0.45884396  0.04422963  0.07211491    -0.05600
N6          N  0.43074052  0.04879731  0.09530331    -0.58400
N7          N  0.04092285  0.07047460  0.03700659    -0.05300
N8          N  0.06782172  0.09467868  0.03891451    -0.61000
C9          C  0.08702658  0.08286380  0.06952534     0.95800
C10         C  0.41114408  0.07781832  0.07946914     0.95600
N11         N  0.44831227  0.04195196  0.43578242    -0.06500
N12         N  0.41768389  0.04596833  0.41685286    -0.59000
N13         N  0.03237340  0.07038304  0.45133947    -0.04700
N14         N  0.05977647  0.09309378  0.44516691    -0.60300
N15         N  0.03092415  0.04432955  0.42492627    -0.06600
N16         N  0.05722654  0.04849622  0.39961220    -0.59300
N17         N  0.44969452  0.06694847  0.46294803    -0.04300
N18         N  0.41988031  0.08803902  0.46395461    -0.60400
Mn19       Mn  0.99532706  0.07111231  0.99903182     1.18400
C20         C  0.40075491  0.07586881  0.43393940     0.97900
C21         C  0.07472084  0.07904445  0.41297150     0.98600
N22         N  0.46251043  0.45735768  0.07476260    -0.06600
N23         N  0.43578455  0.45219523  0.09945593    -0.62900
N24         N  0.04416076  0.43500337  0.03734127    -0.05400
N25         N  0.07375261  0.41347633  0.03717426    -0.63600
N26         N  0.04554045  0.46034325  0.06431806    -0.06100
N27         N  0.07586447  0.45606957  0.08372922    -0.63200
N28         N  0.46143751  0.43182893  0.04777365    -0.05000
N29         N  0.43415479  0.40875669  0.05279297    -0.63900
Mn30       Mn  0.00256645  0.00196180  0.07152392     1.10700
C31         C  0.41859663  0.42183421  0.08486244     0.99100
C32         C  0.09288835  0.42590604  0.06720210     0.99200
N33         N  0.03272070  0.45748109  0.42853313    -0.06100
N34         N  0.05761832  0.45154640  0.40264744    -0.61500
N35         N  0.45372022  0.43224792  0.46191566    -0.05400
N36         N  0.42839201  0.40693550  0.45737869    -0.58200
N37         N  0.45224945  0.45768599  0.43476809    -0.06700
N38         N  0.42623588  0.45061535  0.41055920    -0.61000
N39         N  0.03417457  0.43067012  0.45424358    -0.05700
N40         N  0.05973130  0.40518884  0.44656673    -0.58200
Mn41       Mn  0.49117154  0.50055809  0.42907318     1.20200
Mn42       Mn  0.49824069  0.43063009  0.50076595     1.10100
Cl43       Cl  0.99705351  0.00098493  0.00010991    -0.86200
C44         C  0.07412524  0.41912127  0.41463158     0.96100
C45         C  0.41175796  0.41939952  0.42560046     0.95900
C46         C  0.33785464  0.35236345  0.40399662     0.86300
C47         C  0.36771455  0.32544546  0.38678327    -0.54000
C48         C  0.39580990  0.34281464  0.36663765     0.09200
C49         C  0.38943699  0.38669371  0.36497349     0.20100
C50         C  0.35935594  0.38113402  0.42637137    -0.54700
C51         C  0.38615572  0.39743830  0.40653249     0.09300
C52         C  0.32334366  0.37730716  0.37019100    -0.54200
C53         C  0.35031817  0.39636806  0.35066752     0.09900
H54         H  0.36792442  0.29522089  0.39309067     0.14400
H55         H  0.41055720  0.40228672  0.34888160     0.00100
H56         H  0.35438549  0.38848897  0.45596532     0.14700
H57         H  0.29447513  0.38312066  0.36495177     0.14500
C58         C  0.33734655  0.35944158  0.10017232     0.86300
C59         C  0.36241364  0.38697606  0.07947372    -0.54000
C60         C  0.38825196  0.40277267  0.10183182     0.09200
C61         C  0.38683979  0.39123435  0.14347652     0.20100
C62         C  0.36447187  0.33123239  0.11960530    -0.54700
C63         C  0.39148444  0.34747210  0.14180026     0.09300
C64         C  0.32133327  0.38495697  0.13269861    -0.54200
C65         C  0.34728254  0.40140250  0.15506508     0.09900
H66         H  0.36096023  0.39282662  0.04920418     0.14400
H67         H  0.40593364  0.40587496  0.16249735     0.00100
H68         H  0.36416900  0.30107128  0.11310050     0.14700
H69         H  0.29250314  0.39255590  0.13573927     0.14500
N70         N  0.29888070  0.33609321  0.00195498    -0.36800
N71         N  0.24360622  0.33531162  0.06054347    -0.57400
N72         N  0.18693309  0.33345293  0.99973489    -0.36800
N73         N  0.24332674  0.33507976  0.44141505    -0.57400
C74         C  0.32027904  0.33245558  0.03351771     0.26700
C75         C  0.31997625  0.32784043  0.47095294     0.26700
C76         C  0.16597344  0.33843452  0.03168936     0.26700
C77         C  0.16578276  0.34190038  0.46842125     0.26700
C78         C  0.27303037  0.33482232  0.08383367     0.35400
C79         C  0.21384222  0.33093647  0.08285605     0.35400
C80         C  0.27339010  0.32844700  0.41972434     0.35400
C81         C  0.21384972  0.32965768  0.41906169     0.35400
C82         C  0.35529365  0.32102594  0.02235195    -0.22100
C83         C  0.35506731  0.31791531  0.48322498    -0.22100
C84         C  0.13072019  0.34711035  0.02035323    -0.22100
C85         C  0.13091609  0.35107597  0.48159767    -0.22100
C86         C  0.26202036  0.32808858  0.12088777    -0.23200
C87         C  0.22447657  0.32618820  0.12037647    -0.23200
C88         C  0.26324156  0.31750265  0.38362376    -0.23200
C89         C  0.22549788  0.31775171  0.38329318    -0.23200
C90         C  0.30949400  0.34132644  0.07191068    -0.18500
C91         C  0.30980258  0.33375161  0.43177235    -0.18500
C92         C  0.17732624  0.34100093  0.42880545    -0.18500
C93         C  0.17723548  0.33626458  0.07092042    -0.18500
H94         H  0.37879574  0.31593817  0.04046137     0.14400
H95         H  0.37853120  0.31048216  0.46565328     0.14400
H96         H  0.10656669  0.34889534  0.03787755     0.14400
H97         H  0.10710147  0.35936800  0.46628644     0.14400
H98         H  0.27917647  0.32480752  0.14573866     0.12700
H99         H  0.20693058  0.32235410  0.14491482     0.12700
H100        H  0.28119930  0.31012842  0.36009302     0.12700
H101        H  0.20850423  0.31127132  0.35907109     0.12700
H102        H  0.27237419  0.34727356  0.00126854     0.25900
H103        H  0.21422654  0.32477894  0.99981054     0.25900
C104        C  0.40137980  0.15677461  0.36556743     0.86300
C105        C  0.41470727  0.12996292  0.39640147    -0.54000
C106        C  0.38917514  0.10520803  0.40907016     0.09200
C107        C  0.35155216  0.10981847  0.39229408     0.20100
C108        C  0.38431638  0.13018778  0.33560561    -0.54700
C109        C  0.35895597  0.10441873  0.34917816     0.09300
C110        C  0.36831191  0.17671695  0.38656665    -0.54200
C111        C  0.34318669  0.15201403  0.40187001     0.09900
H112        H  0.44205076  0.13060756  0.40848443     0.14400
H113        H  0.33058604  0.09088449  0.40444211     0.00100
H114        H  0.39445406  0.12945025  0.30657505     0.14700
H115        H  0.36771948  0.20676047  0.39362404     0.14500
N116        N  0.34679470  0.05904995  0.25499587    -0.36800
N117        N  0.33988915  0.50237257  0.19501320    -0.57400
N118        N  0.33804763  0.44183908  0.25384278    -0.36800
N119        N  0.34312461  0.50017400  0.31395365    -0.57400
C120        C  0.33830596  0.08080617  0.22425036     0.26700
C121        C  0.33838453  0.08010978  0.28622994     0.26700
C122        C  0.33693757  0.41969084  0.22239358     0.26700
C123        C  0.33891049  0.41831058  0.28439779     0.26700
C124        C  0.34726820  0.03323358  0.17286112     0.35400
C125        C  0.34205213  0.47092695  0.17248203     0.35400
C126        C  0.34677249  0.03120138  0.33703380     0.35400
C127        C  0.34417064  0.46802579  0.33589338     0.35400
C128        C  0.32353704  0.11542105  0.23614594    -0.22100
C129        C  0.32366028  0.11501710  0.27513466    -0.22100
C130        C  0.33603055  0.38175892  0.23320290    -0.22100
C131        C  0.33734679  0.38087326  0.27209591    -0.22100
C132        C  0.35377839  0.02063171  0.13612283    -0.23200
C133        C  0.34933371  0.48213290  0.13572250    -0.23200
C134        C  0.34901782  0.01809327  0.37414319    -0.23200
C135        C  0.34708227  0.47893717  0.37340678    -0.23200
C136        C  0.34709384  0.07207014  0.18585948    -0.18500
C137        C  0.34687060  0.07060247  0.32444316    -0.18500
C138        C  0.34294344  0.42896030  0.32301213    -0.18500
C139        C  0.33942797  0.43198403  0.18410280    -0.18500
H140        H  0.31452883  0.13895542  0.21843527     0.14400
H141        H  0.31470176  0.13816757  0.29339578     0.14400
H142        H  0.33539790  0.35705179  0.21493674     0.14400
H143        H  0.33783976  0.35531114  0.28925834     0.14400
H144        H  0.36092763  0.03593984  0.11115577     0.12700
H145        H  0.35129734  0.46471228  0.11065343     0.12700
H146        H  0.35019397  0.03399821  0.39994150     0.12700
H147        H  0.34664297  0.46085176  0.39815875     0.12700
H148        H  0.36084032  0.03301361  0.25463477     0.25900
H149        H  0.33964319  0.47113148  0.25427267     0.25900
C150        C  0.39974436  0.15949782  0.14606309     0.86300
C151        C  0.36715367  0.17694150  0.12258535    -0.54000
C152        C  0.34453830  0.15040832  0.10649486     0.09200
C153        C  0.35526514  0.10899837  0.11720050     0.20100
C154        C  0.38218477  0.13289777  0.17552613    -0.54700
C155        C  0.35920578  0.10558025  0.16105212     0.09300
C156        C  0.41721971  0.13295127  0.11712578    -0.54200
C157        C  0.39487077  0.10600043  0.10363870     0.09900
H158        H  0.36447485  0.20698082  0.11585216     0.14400
H159        H  0.33607632  0.08896729  0.10398535     0.00100
H160        H  0.39038804  0.13352874  0.20512448     0.14700
H161        H  0.44536552  0.13517239  0.10713875     0.14500
N162        N  0.25019914  0.15797576  0.44562991    -0.36800
N163        N  0.19274552  0.16091401  0.00425586    -0.57400
N164        N  0.24900871  0.16459801  0.06426690    -0.36800
N165        N  0.30678778  0.16225699  0.00481406    -0.57400
C166        C  0.22015103  0.16247609  0.42344532     0.26700
C167        C  0.27973108  0.16582151  0.42368646     0.26700
C168        C  0.21862428  0.15944445  0.08614818     0.26700
C169        C  0.27888598  0.15837282  0.08663300     0.26700
C170        C  0.17114850  0.16079999  0.47270878     0.35400
C171        C  0.17034314  0.16474058  0.03518410     0.35400
C172        C  0.32888720  0.16135496  0.47333429     0.35400
C173        C  0.32861908  0.16132288  0.03627867     0.35400
C174        C  0.23066529  0.17447538  0.38756946    -0.22100
C175        C  0.26826084  0.17598879  0.38752773    -0.22100
C176        C  0.22943166  0.15100617  0.12297635    -0.22100
C177        C  0.26713417  0.15039547  0.12331475    -0.22100
C178        C  0.13482266  0.16602702  0.48386339    -0.23200
C179        C  0.13432359  0.16825606  0.02297163    -0.23200
C180        C  0.36512712  0.16066242  0.48509452    -0.23200
C181        C  0.36497644  0.16066576  0.02443172    -0.23200
C182        C  0.18359094  0.15460596  0.43413133    -0.18500
C183        C  0.31691714  0.16176742  0.43422616    -0.18500
C184        C  0.31655999  0.15894019  0.07540373    -0.18500
C185        C  0.18128523  0.16164812  0.07428717    -0.18500
H186        H  0.21303249  0.18136311  0.36377195     0.14400
H187        H  0.28528077  0.18381838  0.36358953     0.14400
H188        H  0.21199143  0.14541109  0.14721032     0.14400
H189        H  0.28392188  0.14420873  0.14792104     0.14400
H190        H  0.11093719  0.16797743  0.46576056     0.12700
H191        H  0.11000128  0.17188994  0.04036023     0.12700
H192        H  0.38932790  0.16117368  0.46730112     0.12700
H193        H  0.38908234  0.16050736  0.04221742     0.12700
H194        H  0.25063722  0.14725992  0.47311849     0.25900
H195        H  0.24929663  0.17216618  0.03582474     0.25900
C196        C  0.14346936  0.39952341  0.33987166     0.86300
C197        C  0.11795122  0.36759395  0.32376365    -0.54000
C198        C  0.09972873  0.34677034  0.35129749     0.09200
C199        C  0.11108163  0.35805802  0.39206339     0.20100
C200        C  0.11687050  0.42088249  0.36470651    -0.54700
C201        C  0.10158781  0.40053407  0.39250892     0.09300
C202        C  0.16987812  0.37940442  0.36771817    -0.54200
C203        C  0.15387527  0.35723720  0.39568193     0.09900
H204        H  0.11175795  0.36450937  0.29383421     0.14400
H205        H  0.09601168  0.34045810  0.41264133     0.00100
H206        H  0.10843084  0.45011823  0.35899696     0.14700
H207        H  0.19896534  0.38547674  0.36703630     0.14500
N208        N  0.44415238  0.25110596  0.35145106    -0.36800
N209        N  0.49882699  0.31038020  0.34630624    -0.57400
N210        N  0.05754059  0.24992464  0.34637918    -0.36800
N211        N  0.50218661  0.19097989  0.34686350    -0.57400
C212        C  0.42362071  0.28211295  0.34186415     0.26700
C213        C  0.42478344  0.22030882  0.34118414     0.26700
C214        C  0.07770904  0.28095952  0.33759581     0.26700
C215        C  0.07910715  0.21851934  0.33999347     0.26700
C216        C  0.46837223  0.33237791  0.35526100     0.35400
C217        C  0.02955197  0.33201448  0.34996134     0.35400
C218        C  0.47162955  0.16895930  0.34929803     0.35400
C219        C  0.03269649  0.16765663  0.34944756     0.35400
C220        C  0.39172858  0.27079757  0.32400885    -0.22100
C221        C  0.39239704  0.23172962  0.32378550    -0.22100
C222        C  0.11208161  0.26904723  0.32483045    -0.22100
C223        C  0.11284768  0.22993254  0.32603400    -0.22100
C224        C  0.48028816  0.36844699  0.36426585    -0.23200
C225        C  0.01806590  0.36844116  0.35951941    -0.23200
C226        C  0.48302625  0.13125772  0.35054444    -0.23200
C227        C  0.02075095  0.13051125  0.35194430    -0.23200
C228        C  0.43050067  0.31981536  0.35353635    -0.18500
C229        C  0.43369261  0.18238386  0.35089903    -0.18500
C230        C  0.07063414  0.17991999  0.34900272    -0.18500
C231        C  0.06759289  0.31969955  0.34426699    -0.18500
H232        H  0.36958617  0.28891286  0.31367889     0.14400
H233        H  0.37102206  0.21368637  0.31306147     0.14400
H234        H  0.13463825  0.28672616  0.31613290     0.14400
H235        H  0.13600978  0.21184802  0.31818811     0.14400
H236        H  0.46422617  0.39293192  0.37262269     0.12700
H237        H  0.03479261  0.39314432  0.36118103     0.12700
H238        H  0.46607888  0.10631141  0.35022998     0.12700
H239        H  0.03630824  0.10461627  0.35350488     0.12700
H240        H  0.46795354  0.25083458  0.36776041     0.25900
H241        H  0.03178678  0.25040966  0.35911468     0.25900
C242        C  0.15719994  0.13851282  0.40321789     0.86300
C243        C  0.13016678  0.16816290  0.38573808    -0.54000
C244        C  0.10381177  0.15421982  0.36136693     0.09200
C245        C  0.10907954  0.11027096  0.35594219     0.20100
C246        C  0.13261167  0.10854092  0.42044547    -0.54700
C247        C  0.10701817  0.09497203  0.39653327     0.09300
C248        C  0.17446875  0.11618192  0.36908179    -0.54200
C249        C  0.14947144  0.10072902  0.34477126     0.09900
H250        H  0.13009332  0.19758935  0.39503670     0.14400
H251        H  0.09017677  0.09701279  0.33562888     0.00100
H252        H  0.13363951  0.09991205  0.45006823     0.14700
H253        H  0.20346635  0.10898375  0.36681639     0.14500
N254        N  0.15805363  0.44161466  0.24457301    -0.36800
N255        N  0.16438061  0.00006156  0.30373499    -0.57400
N256        N  0.15449621  0.05923850  0.24682360    -0.36800
N257        N  0.15478541  0.00094310  0.18657704    -0.57400
C258        C  0.16640443  0.41926816  0.27463683     0.26700
C259        C  0.16274208  0.42005537  0.21316721     0.26700
C260        C  0.16175753  0.08106018  0.27755871     0.26700
C261        C  0.15873677  0.08134104  0.21568953     0.26700
C262        C  0.16747723  0.46820334  0.32561460     0.35400
C263        C  0.16373665  0.03085356  0.32735188     0.35400
C264        C  0.15022651  0.46972096  0.16403992     0.35400
C265        C  0.14858862  0.03266314  0.16487854     0.35400
C266        C  0.17734574  0.38344707  0.26240319    -0.22100
C267        C  0.17516672  0.38393183  0.22347417    -0.22100
C268        C  0.17097101  0.11725463  0.26594241    -0.22100
C269        C  0.16975865  0.11727234  0.22695556    -0.22100
C270        C  0.17162937  0.47942561  0.36325131    -0.27000
C271        C  0.16822474  0.01859659  0.36439820    -0.23200
C272        C  0.14316100  0.48213899  0.12766720    -0.23200
C273        C  0.14160621  0.02098919  0.12822079    -0.23200
C274        C  0.16149474  0.42944107  0.31287588    -0.18500
C275        C  0.15208224  0.43049472  0.17600411    -0.18500
C276        C  0.14920656  0.07159528  0.17779950    -0.18500
C277        C  0.15901787  0.06983885  0.31594601    -0.18500
H278        H  0.18536948  0.35934544  0.27984582     0.14400
H279        H  0.18094634  0.36007167  0.20485165     0.14400
H280        H  0.17801575  0.14110914  0.28374183     0.14400
H281        H  0.17531418  0.14145596  0.20891485     0.14400
H282        H  0.17504835  0.46110935  0.38775142     0.12700
H283        H  0.16921848  0.03598789  0.38967868     0.12700
H284        H  0.14127413  0.46600168  0.10217764     0.12700
H285        H  0.13709345  0.03747006  0.10321136     0.12700
H286        H  0.14624812  0.46861646  0.24582228     0.25900
H287        H  0.14416636  0.03197699  0.24722159     0.25900
C288        C  0.09465536  0.16058058  0.14080906     0.86300
C289        C  0.11049494  0.13117478  0.16875699    -0.54000
C290        C  0.13474859  0.10469048  0.15355007     0.09200
C291        C  0.14088571  0.11096486  0.11031458     0.20100
C292        C  0.12864417  0.17861284  0.12063092    -0.54700
C293        C  0.15231872  0.15245883  0.10388943     0.09300
C294        C  0.07868564  0.13712118  0.10903618    -0.54200
C295        C  0.10220814  0.11101317  0.09389505     0.09900
H296        H  0.10130767  0.13025211  0.19811558     0.14400
H297        H  0.16063882  0.09098261  0.09660347     0.00100
H298        H  0.13151550  0.20892852  0.11605597     0.14700
H299        H  0.05031823  0.13980506  0.09976434     0.14500
C300        C  0.09292053  0.34731576  0.13819910     0.86300
C301        C  0.07957966  0.37307328  0.10654175    -0.54000
C302        C  0.10514251  0.39703606  0.09277228     0.09200
C303        C  0.14325369  0.39180489  0.10903813     0.20100
C304        C  0.12516158  0.32574345  0.11774334    -0.54700
C305        C  0.15077601  0.34903192  0.10162538     0.09300
C306        C  0.11091017  0.37415908  0.16691183    -0.54200
C307        C  0.13694792  0.39817590  0.15208621     0.09900
H308        H  0.05224544  0.37213905  0.09448582     0.14400
H309        H  0.16446764  0.40989955  0.09596309     0.00100
H310        H  0.12521911  0.29541679  0.11201795     0.14700
H311        H  0.10167535  0.37580512  0.19623727     0.14500
N312        N  0.05137554  0.25496265  0.15710916    -0.36800
N313        N  0.49675954  0.19703075  0.16499466    -0.57400
N314        N  0.43857195  0.25533547  0.15905072    -0.36800
N315        N  0.49306608  0.31414162  0.15925696    -0.57400
C316        C  0.07261892  0.22461015  0.16639376     0.26700
C317        C  0.07062942  0.28594124  0.16613862     0.26700
C318        C  0.41903398  0.22462527  0.16927341     0.26700
C319        C  0.41734549  0.28631745  0.16682000     0.26700
C320        C  0.02733382  0.17414272  0.16418853     0.35400
C321        C  0.46709383  0.17414964  0.16683084     0.35400
C322        C  0.02333456  0.33625772  0.15565459     0.35400
C323        C  0.46252911  0.33689001  0.15441969     0.35400
C324        C  0.10511100  0.23616444  0.18253272    -0.22100
C325        C  0.10377562  0.27520597  0.18260733    -0.22100
C326        C  0.38558698  0.23599767  0.18456495    -0.22100
C327        C  0.38456104  0.27504693  0.18322532    -0.22100
C328        C  0.01704615  0.13658540  0.16803217    -0.23200
C329        C  0.47926413  0.13663003  0.17034931    -0.23200
C330        C  0.01173965  0.37365905  0.15173524    -0.23200
C331        C  0.47420644  0.37386127  0.14918117    -0.23200
C332        C  0.06417806  0.18692320  0.15819295    -0.18500
C333        C  0.06118352  0.32307101  0.15492924    -0.18500
C334        C  0.42494514  0.32403703  0.15563516    -0.18500
C335        C  0.42939139  0.18658144  0.16225178    -0.18500
H336        H  0.12755220  0.21826712  0.19254770     0.14400
H337        H  0.12528079  0.29367398  0.19227446     0.14400
H338        H  0.36398964  0.21791512  0.19494581     0.14400
H339        H  0.36181147  0.29314083  0.19219890     0.14400
H340        H  0.03481672  0.11162573  0.16897187     0.12700
H341        H  0.46262173  0.11160992  0.17334653     0.12700
H342        H  0.02841871  0.39878630  0.15066623     0.12700
H343        H  0.45890430  0.39946329  0.14471851     0.12700
H344        H  0.02698435  0.25456071  0.14183485     0.25900
H345        H  0.46325886  0.25484062  0.14412910     0.25900
N346        N  0.04308218  0.04560909  0.56454402    -0.06400
N347        N  0.07157696  0.05231962  0.58596343    -0.58500
N348        N  0.45695977  0.06914332  0.54465376    -0.06000
N349        N  0.42738686  0.09054593  0.54776164    -0.60600
N350        N  0.45884394  0.04422963  0.57211491    -0.05600
N351        N  0.43074054  0.04879736  0.59530334    -0.58400
N352        N  0.04092286  0.07047463  0.53700658    -0.05300
N353        N  0.06782173  0.09467869  0.53891449    -0.61000
C354        C  0.08702658  0.08286383  0.56952534     0.95800
C355        C  0.41114409  0.07781835  0.57946913     0.95600
N356        N  0.44831229  0.04195190  0.93578241    -0.06500
N357        N  0.41768391  0.04596828  0.91685285    -0.59000
N358        N  0.03237343  0.07038298  0.95133947    -0.04700
N359        N  0.05977649  0.09309372  0.94516691    -0.60300
N360        N  0.03092418  0.04432949  0.92492626    -0.06600
N361        N  0.05722657  0.04849617  0.89961219    -0.59300
N362        N  0.44969454  0.06694841  0.96294802    -0.04300
N363        N  0.41988033  0.08803897  0.96395460    -0.60400
Mn364      Mn  0.99532705  0.07111236  0.49903182     1.18400
C365        C  0.40075493  0.07586877  0.93393938     0.97900
C366        C  0.07472088  0.07904439  0.91297149     0.98600
N367        N  0.46251044  0.45735766  0.57476259    -0.06600
N368        N  0.43578457  0.45219519  0.59945592    -0.62900
N369        N  0.04416078  0.43500335  0.53734127    -0.05400
N370        N  0.07375264  0.41347633  0.53717426    -0.63600
N371        N  0.04554046  0.46034325  0.56431805    -0.06100
N372        N  0.07586448  0.45606957  0.58372922    -0.63200
N373        N  0.46143755  0.43182889  0.54777365    -0.05000
N374        N  0.43415483  0.40875664  0.55279296    -0.63900
Mn375      Mn  0.00256640  0.00196181  0.57152392     1.10700
C376        C  0.41859666  0.42183417  0.58486243     0.99100
C377        C  0.09288838  0.42590604  0.56720210     0.99200
N378        N  0.03272073  0.45748121  0.92853318    -0.06100
N379        N  0.05761829  0.45154643  0.90264744    -0.61500
N380        N  0.45372025  0.43224799  0.96191568    -0.05400
N381        N  0.42839201  0.40693559  0.95737872    -0.58200
N382        N  0.45224946  0.45768606  0.93476813    -0.06700
N383        N  0.42623586  0.45061546  0.91055926    -0.61000
N384        N  0.03417459  0.43067031  0.95424366    -0.05700
N385        N  0.05973123  0.40518891  0.94656679    -0.58200
Mn386      Mn  0.49117158  0.50055815  0.92907317     1.20200
Mn387      Mn  0.49824070  0.43063016  0.00076596     1.10100
Cl388      Cl  0.99705351  0.00098502  0.50010990    -0.86200
C389        C  0.07412515  0.41912128  0.91463160     0.96100
C390        C  0.41175794  0.41939961  0.92560051     0.95900
C391        C  0.33785469  0.35236345  0.90399661     0.86300
C392        C  0.36771458  0.32544546  0.88678326    -0.54000
C393        C  0.39580992  0.34281464  0.86663765     0.09200
C394        C  0.38943700  0.38669372  0.86497351     0.20100
C395        C  0.35935600  0.38113401  0.92637136    -0.54700
C396        C  0.38615575  0.39743833  0.90653250     0.09300
C397        C  0.32334369  0.37730715  0.87019100    -0.54200
C398        C  0.35031820  0.39636806  0.85066751     0.09900
H399        H  0.36792443  0.29522089  0.89309066     0.14400
H400        H  0.41055720  0.40228681  0.84888161     0.00100
H401        H  0.35438553  0.38848893  0.95596531     0.14700
H402        H  0.29447517  0.38312064  0.86495180     0.14500
C403        C  0.33734656  0.35944156  0.60017231     0.86300
C404        C  0.36241364  0.38697606  0.57947370    -0.54000
C405        C  0.38825198  0.40277263  0.60183181     0.09200
C406        C  0.38683982  0.39123433  0.64347652     0.20100
C407        C  0.36447188  0.33123233  0.61960529    -0.54700
C408        C  0.39148445  0.34747208  0.64180026     0.09300
C409        C  0.32133329  0.38495694  0.63269863    -0.54200
C410        C  0.34728256  0.40140249  0.65506510     0.09900
H411        H  0.36096020  0.39282664  0.54920419     0.14400
H412        H  0.40593369  0.40587491  0.66249735     0.00100
H413        H  0.36416900  0.30107131  0.61310054     0.14700
H414        H  0.29250314  0.39255580  0.63573930     0.14500
N415        N  0.29888074  0.33609317  0.50195498    -0.36800
N416        N  0.24360625  0.33531181  0.56054347    -0.57400
N417        N  0.18693308  0.33345296  0.49973489    -0.36800
N418        N  0.24332675  0.33507995  0.94141501    -0.57400
C419        C  0.32027906  0.33245554  0.53351772     0.26700
C420        C  0.31997624  0.32784044  0.97095294     0.26700
C421        C  0.16597345  0.33843464  0.53168936     0.26700
C422        C  0.16578278  0.34190047  0.96842126     0.26700
C423        C  0.27303039  0.33482232  0.58383366     0.35400
C424        C  0.21384224  0.33093671  0.58285605     0.35400
C425        C  0.27339010  0.32844717  0.91972432     0.35400
C426        C  0.21384972  0.32965774  0.91906169     0.35400
C427        C  0.35529367  0.32102591  0.52235195    -0.22100
C428        C  0.35506729  0.31791529  0.98322499    -0.22100
C429        C  0.13072016  0.34711037  0.52035325    -0.22100
C430        C  0.13091610  0.35107601  0.98159766    -0.22100
C431        C  0.26202037  0.32808856  0.62088773    -0.23200
C432        C  0.22447658  0.32618836  0.62037647    -0.23200
C433        C  0.26324157  0.31750267  0.88362378    -0.23200
C434        C  0.22549789  0.31775167  0.88329321    -0.23200
C435        C  0.30949403  0.34132639  0.57191069    -0.18500
C436        C  0.30980259  0.33375170  0.93177235    -0.18500
C437        C  0.17732625  0.34100104  0.92880545    -0.18500
C438        C  0.17723551  0.33626474  0.57092041    -0.18500
H439        H  0.37879576  0.31593810  0.54046136     0.14400
H440        H  0.37853120  0.31048212  0.96565330     0.14400
H441        H  0.10656672  0.34889531  0.53787755     0.14400
H442        H  0.10710148  0.35936805  0.96628643     0.14400
H443        H  0.27917652  0.32480737  0.64573863     0.12700
H444        H  0.20693058  0.32235425  0.64491480     0.12700
H445        H  0.28119933  0.31012842  0.86009303     0.12700
H446        H  0.20850425  0.31127127  0.85907111     0.12700
H447        H  0.27237419  0.34727345  0.50126854     0.25900
H448        H  0.21422655  0.32477901  0.49981057     0.25900
C449        C  0.40137981  0.15677460  0.86556743     0.86300
C450        C  0.41470728  0.12996290  0.89640146    -0.54000
C451        C  0.38917515  0.10520801  0.90907016     0.09200
C452        C  0.35155217  0.10981850  0.89229408     0.20100
C453        C  0.38431640  0.13018777  0.83560561    -0.54700
C454        C  0.35895599  0.10441872  0.84917818     0.09300
C455        C  0.36831195  0.17671703  0.88656665    -0.54200
C456        C  0.34318671  0.15201409  0.90187001     0.09900
H457        H  0.44205079  0.13060753  0.90848441     0.14400
H458        H  0.33058604  0.09088453  0.90444213     0.00100
H459        H  0.39445410  0.12945022  0.80657506     0.14700
H460        H  0.36771952  0.20676047  0.89362400     0.14500
N461        N  0.34679471  0.05905007  0.75499587    -0.36800
N462        N  0.33988901  0.50237261  0.69501318    -0.57400
N463        N  0.33804766  0.44183927  0.75384283    -0.36800
N464        N  0.34312465  0.50017402  0.81395364    -0.57400
C465        C  0.33830597  0.08080619  0.72425035     0.26700
C466        C  0.33838454  0.08010979  0.78622995     0.26700
C467        C  0.33693760  0.41969092  0.72239360     0.26700
C468        C  0.33891052  0.41831063  0.78439781     0.26700
C469        C  0.34726822  0.03323360  0.67286114     0.35400
C470        C  0.34205209  0.47092695  0.67248203     0.35400
C471        C  0.34677246  0.03120139  0.83703381     0.35400
C472        C  0.34417060  0.46802581  0.83589339     0.35400
C473        C  0.32353703  0.11542105  0.73614593    -0.22100
C474        C  0.32366026  0.11501709  0.77513467    -0.22100
C475        C  0.33603057  0.38175897  0.73320289    -0.22100
C476        C  0.33734682  0.38087331  0.77209590    -0.22100
C477        C  0.35377840  0.02063177  0.63612286    -0.23200
C478        C  0.34933369  0.48213289  0.63572251    -0.23200
C479        C  0.34901769  0.01809326  0.87414321    -0.23200
C480        C  0.34708213  0.47893721  0.87340681    -0.23200
C481        C  0.34709386  0.07207014  0.68585948    -0.18500
C482        C  0.34687062  0.07060246  0.82444317    -0.18500
C483        C  0.34294345  0.42896031  0.82301214    -0.18500
C484        C  0.33942799  0.43198405  0.68410284    -0.18500
H485        H  0.31452879  0.13895540  0.71843524     0.14400
H486        H  0.31470168  0.13816751  0.79339579     0.14400
H487        H  0.33539791  0.35705193  0.71493675     0.14400
H488        H  0.33783978  0.35531114  0.78925830     0.14400
H489        H  0.36092766  0.03594000  0.61115583     0.12700
H490        H  0.35129742  0.46471225  0.61065347     0.12700
H491        H  0.35019379  0.03399817  0.89994153     0.12700
H492        H  0.34664279  0.46085186  0.89815876     0.12700
H493        H  0.36084041  0.03301369  0.75463476     0.25900
H494        H  0.33964320  0.47113159  0.75427272     0.25900
C495        C  0.39974438  0.15949780  0.64606309     0.86300
C496        C  0.36715370  0.17694153  0.62258536    -0.54000
C497        C  0.34453832  0.15040837  0.60649487     0.09200
C498        C  0.35526513  0.10899841  0.61720048     0.20100
C499        C  0.38218480  0.13289774  0.67552613    -0.54700
C500        C  0.35920579  0.10558025  0.66105211     0.09300
C501        C  0.41721974  0.13295126  0.61712577    -0.54200
C502        C  0.39487076  0.10600046  0.60363866     0.09900
H503        H  0.36447489  0.20698086  0.61585220     0.14400
H504        H  0.33607627  0.08896741  0.60398529     0.00100
H505        H  0.39038809  0.13352868  0.70512448     0.14700
H506        H  0.44536554  0.13517234  0.60713871     0.14500
N507        N  0.25019916  0.15797575  0.94562989    -0.36800
N508        N  0.19274551  0.16091392  0.50425586    -0.57400
N509        N  0.24900871  0.16459795  0.56426688    -0.36800
N510        N  0.30678783  0.16225695  0.50481405    -0.57400
C511        C  0.22015104  0.16247614  0.92344531     0.26700
C512        C  0.27973109  0.16582157  0.92368644     0.26700
C513        C  0.21862426  0.15944439  0.58614817     0.26700
C514        C  0.27888599  0.15837284  0.58663299     0.26700
C515        C  0.17114850  0.16080009  0.97270878     0.35400
C516        C  0.17034312  0.16474053  0.53518410     0.35400
C517        C  0.32888715  0.16135502  0.97333429     0.35400
C518        C  0.32861912  0.16132284  0.53627866     0.35400
C519        C  0.23066531  0.17447544  0.88756945    -0.22100
C520        C  0.26826083  0.17598892  0.88752777    -0.22100
C521        C  0.22943166  0.15100615  0.62297636    -0.22100
C522        C  0.26713418  0.15039557  0.62331476    -0.22100
C523        C  0.13482266  0.16602704  0.98386340    -0.23200
C524        C  0.13432358  0.16825603  0.52297163    -0.23200
C525        C  0.36512709  0.16066255  0.98509449    -0.23200
C526        C  0.36497649  0.16066568  0.52443173    -0.23200
C527        C  0.18359095  0.15460604  0.93413133    -0.18500
C528        C  0.31691714  0.16176752  0.93422615    -0.18500
C529        C  0.31656001  0.15894021  0.57540372    -0.18500
C530        C  0.18128521  0.16164809  0.57428716    -0.18500
H531        H  0.21303253  0.18136312  0.86377192     0.14400
H532        H  0.28528078  0.18381868  0.86358955     0.14400
H533        H  0.21199148  0.14541101  0.64721030     0.14400
H534        H  0.28392190  0.14420891  0.64792104     0.14400
H535        H  0.11093718  0.16797735  0.96576057     0.12700
H536        H  0.11000128  0.17188993  0.54036022     0.12700
H537        H  0.38932779  0.16117385  0.96730110     0.12700
H538        H  0.38908237  0.16050732  0.54221744     0.12700
H539        H  0.25063724  0.14725985  0.97311844     0.25900
H540        H  0.24929663  0.17216607  0.53582470     0.25900
C541        C  0.14346929  0.39952345  0.83987168     0.86300
C542        C  0.11795118  0.36759401  0.82376364    -0.54000
C543        C  0.09972873  0.34677036  0.85129750     0.09200
C544        C  0.11108159  0.35805803  0.89206338     0.20100
C545        C  0.11687040  0.42088250  0.86470651    -0.54700
C546        C  0.10158771  0.40053406  0.89250894     0.09300
C547        C  0.16987809  0.37940443  0.86771817    -0.54200
C548        C  0.15387523  0.35723720  0.89568192     0.09900
H549        H  0.11175794  0.36450950  0.79383420     0.14400
H550        H  0.09601159  0.34045807  0.91264134     0.00100
H551        H  0.10843077  0.45011827  0.85899697     0.14700
H552        H  0.19896521  0.38547673  0.86703634     0.14500
N553        N  0.44415225  0.25110592  0.85145107    -0.36800
N554        N  0.49882705  0.31038028  0.84630623    -0.57400
N555        N  0.05754060  0.24992465  0.84637918    -0.36800
N556        N  0.50218660  0.19097985  0.84686349    -0.57400
C557        C  0.42362067  0.28211291  0.84186423     0.26700
C558        C  0.42478343  0.22030877  0.84118412     0.26700
C559        C  0.07770906  0.28095955  0.83759584     0.26700
C560        C  0.07910714  0.21851935  0.83999345     0.26700
C561        C  0.46837224  0.33237795  0.85526100     0.35400
C562        C  0.02955198  0.33201460  0.84996134     0.35400
C563        C  0.47162954  0.16895925  0.84929802     0.35400
C564        C  0.03269649  0.16765659  0.84944754     0.35400
C565        C  0.39172857  0.27079753  0.82400888    -0.22100
C566        C  0.39239703  0.23172957  0.82378546    -0.22100
C567        C  0.11208163  0.26904722  0.82483045    -0.22100
C568        C  0.11284767  0.22993251  0.82603399    -0.22100
C569        C  0.48028812  0.36844706  0.86426585    -0.23200
C570        C  0.01806584  0.36844133  0.85951939    -0.23200
C571        C  0.48302625  0.13125767  0.85054443    -0.23200
C572        C  0.02075096  0.13051122  0.85194429    -0.23200
C573        C  0.43050069  0.31981535  0.85353638    -0.18500
C574        C  0.43369261  0.18238381  0.85089901    -0.18500
C575        C  0.07063412  0.17991998  0.84900270    -0.18500
C576        C  0.06759291  0.31969959  0.84426705    -0.18500
H577        H  0.36958620  0.28891284  0.81367886     0.14400
H578        H  0.37102208  0.21368633  0.81306139     0.14400
H579        H  0.13463830  0.28672611  0.81613292     0.14400
H580        H  0.13600976  0.21184796  0.81818810     0.14400
H581        H  0.46422611  0.39293189  0.87262271     0.12700
H582        H  0.03479243  0.39314451  0.86118103     0.12700
H583        H  0.46607889  0.10631134  0.85022997     0.12700
H584        H  0.03630829  0.10461619  0.85350487     0.12700
H585        H  0.46795347  0.25083453  0.86776047     0.25900
H586        H  0.03178679  0.25040966  0.85911468     0.25900
C587        C  0.15719991  0.13851292  0.90321789     0.86300
C588        C  0.13016668  0.16816291  0.88573810    -0.54000
C589        C  0.10381172  0.15421982  0.86136692     0.09200
C590        C  0.10907956  0.11027095  0.85594219     0.20100
C591        C  0.13261171  0.10854094  0.92044545    -0.54700
C592        C  0.10701822  0.09497200  0.89653326     0.09300
C593        C  0.17446875  0.11618207  0.86908176    -0.54200
C594        C  0.14947146  0.10072907  0.84477126     0.09900
H595        H  0.13009310  0.19758945  0.89503672     0.14400
H596        H  0.09017682  0.09701273  0.83562888     0.00100
H597        H  0.13363959  0.09991206  0.95006820     0.14700
H598        H  0.20346634  0.10898394  0.86681640     0.14500
N599        N  0.15805371  0.44161452  0.74457301    -0.36800
N600        N  0.16438063  0.00006158  0.80373498    -0.57400
N601        N  0.15449618  0.05923847  0.74682361    -0.36800
N602        N  0.15478537  0.00094309  0.68657702    -0.57400
C603        C  0.16640446  0.41926811  0.77463685     0.26700
C604        C  0.16274212  0.42005533  0.71316721     0.26700
C605        C  0.16175755  0.08106017  0.77755871     0.26700
C606        C  0.15873670  0.08134101  0.71568954     0.26700
C607        C  0.16747725  0.46820334  0.82561460     0.35400
C608        C  0.16373667  0.03085357  0.82735189     0.35400
C609        C  0.15022654  0.46972100  0.66403994     0.35400
C610        C  0.14858864  0.03266311  0.66487851     0.35400
C611        C  0.17734575  0.38344701  0.76240319    -0.22100
C612        C  0.17516674  0.38393178  0.72347417    -0.22100
C613        C  0.17097103  0.11725459  0.76594239    -0.22100
C614        C  0.16975862  0.11727228  0.72695554    -0.22100
C615        C  0.17162938  0.47942563  0.86325131    -0.27000
C616        C  0.16822476  0.01859657  0.86439820    -0.23200
C617        C  0.14316103  0.48213904  0.62766722    -0.23200
C618        C  0.14160619  0.02098917  0.62822077    -0.23200
C619        C  0.16149475  0.42944106  0.81287590    -0.18500
C620        C  0.15208225  0.43049473  0.67600412    -0.18500
C621        C  0.14920654  0.07159525  0.67779948    -0.18500
C622        C  0.15901793  0.06983886  0.81594602    -0.18500
H623        H  0.18536950  0.35934538  0.77984583     0.14400
H624        H  0.18094636  0.36007162  0.70485164     0.14400
H625        H  0.17801582  0.14110910  0.78374178     0.14400
H626        H  0.17531420  0.14145588  0.70891481     0.14400
H627        H  0.17504834  0.46110939  0.88775144     0.12700
H628        H  0.16921851  0.03598787  0.88967868     0.12700
H629        H  0.14127416  0.46600168  0.60217764     0.12700
H630        H  0.13709351  0.03747005  0.60321132     0.12700
H631        H  0.14624820  0.46861638  0.74582227     0.25900
H632        H  0.14416637  0.03197693  0.74722161     0.25900
C633        C  0.09465535  0.16058063  0.64080909     0.86300
C634        C  0.11049496  0.13117479  0.66875698    -0.54000
C635        C  0.13474858  0.10469047  0.65355005     0.09200
C636        C  0.14088568  0.11096491  0.61031459     0.20100
C637        C  0.12864411  0.17861286  0.62063090    -0.54700
C638        C  0.15231868  0.15245887  0.60388943     0.09300
C639        C  0.07868565  0.13712128  0.60903617    -0.54200
C640        C  0.10220812  0.11101324  0.59389506     0.09900
H641        H  0.10130768  0.13025207  0.69811556     0.14400
H642        H  0.16063882  0.09098265  0.59660345     0.00100
H643        H  0.13151538  0.20892862  0.61605585     0.14700
H644        H  0.05031824  0.13980524  0.59976431     0.14500
C645        C  0.09292056  0.34731576  0.63819910     0.86300
C646        C  0.07957969  0.37307326  0.60654174    -0.54000
C647        C  0.10514254  0.39703606  0.59277229     0.09200
C648        C  0.14325370  0.39180490  0.60903817     0.20100
C649        C  0.12516161  0.32574344  0.61774334    -0.54700
C650        C  0.15077603  0.34903195  0.60162540     0.09300
C651        C  0.11091017  0.37415908  0.66691187    -0.54200
C652        C  0.13694791  0.39817591  0.65208623     0.09900
H653        H  0.05224548  0.37213902  0.59448579     0.14400
H654        H  0.16446765  0.40989957  0.59596315     0.00100
H655        H  0.12521915  0.29541678  0.61201791     0.14700
H656        H  0.10167536  0.37580513  0.69623728     0.14500
N657        N  0.05137550  0.25496271  0.65710914    -0.36800
N658        N  0.49675952  0.19703074  0.66499466    -0.57400
N659        N  0.43857197  0.25533544  0.65905071    -0.36800
N660        N  0.49306608  0.31414167  0.65925695    -0.57400
C661        C  0.07261888  0.22461018  0.66639380     0.26700
C662        C  0.07062941  0.28594128  0.66613858     0.26700
C663        C  0.41903399  0.22462524  0.66927340     0.26700
C664        C  0.41734552  0.28631742  0.66681998     0.26700
C665        C  0.02733378  0.17414272  0.66418856     0.35400
C666        C  0.46709381  0.17414960  0.66683083     0.35400
C667        C  0.02333457  0.33625778  0.65565458     0.35400
C668        C  0.46252912  0.33689007  0.65441968     0.35400
C669        C  0.10511099  0.23616447  0.68253277    -0.22100
C670        C  0.10377560  0.27520601  0.68260732    -0.22100
C671        C  0.38558701  0.23599764  0.68456494    -0.22100
C672        C  0.38456106  0.27504689  0.68322531    -0.22100
C673        C  0.01704613  0.13658541  0.66803216    -0.23200
C674        C  0.47926412  0.13663001  0.67034929    -0.23200
C675        C  0.01173969  0.37365910  0.65173522    -0.23200
C676        C  0.47420647  0.37386131  0.64918117    -0.23200
C677        C  0.06417805  0.18692322  0.65819307    -0.18500
C678        C  0.06118353  0.32307104  0.65492924    -0.18500
C679        C  0.42494516  0.32403703  0.65563515    -0.18500
C680        C  0.42939140  0.18658141  0.66225178    -0.18500
H681        H  0.12755208  0.21826722  0.69254778     0.14400
H682        H  0.12528079  0.29367402  0.69227444     0.14400
H683        H  0.36398966  0.21791504  0.69494581     0.14400
H684        H  0.36181149  0.29314079  0.69219888     0.14400
H685        H  0.03481676  0.11162573  0.66897187     0.12700
H686        H  0.46262172  0.11160990  0.67334652     0.12700
H687        H  0.02841876  0.39878633  0.65066623     0.12700
H688        H  0.45890433  0.39946341  0.64471853     0.12700
H689        H  0.02698431  0.25456077  0.64183484     0.25900
H690        H  0.46325889  0.25484059  0.64412910     0.25900
N691        N  0.04308223  0.54560905  0.06454396    -0.06400
N692        N  0.07157694  0.55231965  0.08596346    -0.58500
N693        N  0.45695980  0.56914341  0.04465380    -0.06000
N694        N  0.42738682  0.59054590  0.04776165    -0.60600
N695        N  0.45884404  0.54422969  0.07211493    -0.05600
N696        N  0.43074059  0.54879732  0.09530332    -0.58400
N697        N  0.04092285  0.57047462  0.03700658    -0.05300
N698        N  0.06782168  0.59467875  0.03891453    -0.61000
C699        C  0.08702654  0.58286388  0.06952535     0.95800
C700        C  0.41114404  0.57781826  0.07946912     0.95600
N701        N  0.44831230  0.54195181  0.43578248    -0.06500
N702        N  0.41768394  0.54596826  0.41685286    -0.59000
N703        N  0.03237339  0.57038302  0.45133948    -0.04700
N704        N  0.05977648  0.59309376  0.44516687    -0.60300
N705        N  0.03092416  0.54432953  0.42492629    -0.06600
N706        N  0.05722651  0.54849618  0.39961220    -0.59300
N707        N  0.44969457  0.56694835  0.46294805    -0.04300
N708        N  0.41988047  0.58803902  0.46395455    -0.60400
Mn709      Mn  0.99532707  0.57111235  0.99903183     1.18400
C710        C  0.40075505  0.57586882  0.43393936     0.97900
C711        C  0.07472087  0.57904437  0.41297151     0.98600
N712        N  0.46251046  0.95735764  0.07476263    -0.06600
N713        N  0.43578449  0.95219526  0.09945590    -0.62900
N714        N  0.04416073  0.93500344  0.03734127    -0.05400
N715        N  0.07375257  0.91347639  0.03717426    -0.63600
N716        N  0.04554042  0.96034333  0.06431806    -0.06100
N717        N  0.07586443  0.95606964  0.08372923    -0.63200
N718        N  0.46143756  0.93182885  0.04777371    -0.05000
N719        N  0.43415476  0.90875670  0.05279296    -0.63900
Mn720      Mn  0.00256648  0.50196177  0.07152391     1.10700
C721        C  0.41859657  0.92183426  0.08486242     0.99100
C722        C  0.09288831  0.92590611  0.06720210     0.99200
N723        N  0.03272075  0.95748114  0.42853313    -0.06100
N724        N  0.05761843  0.95154644  0.40264748    -0.61500
N725        N  0.45372022  0.93224796  0.46191565    -0.05400
N726        N  0.42839198  0.90693558  0.45737871    -0.58200
N727        N  0.45224945  0.95768604  0.43476810    -0.06700
N728        N  0.42623588  0.95061539  0.41055918    -0.61000
N729        N  0.03417458  0.93067016  0.45424357    -0.05700
N730        N  0.05973126  0.90518882  0.44656672    -0.58200
Mn731      Mn  0.49117153  0.00055815  0.42907316     1.20200
Mn732      Mn  0.49824072  0.93063015  0.50076594     1.10100
Cl733      Cl  0.99705359  0.50098496  0.00010991    -0.86200
C734        C  0.07412527  0.91912128  0.41463160     0.96100
C735        C  0.41175793  0.91939960  0.42560048     0.95900
C736        C  0.33785465  0.85236345  0.40399661     0.86300
C737        C  0.36771455  0.82544542  0.38678325    -0.54000
C738        C  0.39580994  0.84281465  0.36663768     0.09200
C739        C  0.38943699  0.88669371  0.36497352     0.20100
C740        C  0.35935601  0.88113395  0.42637139    -0.54700
C741        C  0.38615572  0.89743832  0.40653250     0.09300
C742        C  0.32334362  0.87730722  0.37019101    -0.54200
C743        C  0.35031818  0.89636809  0.35066752     0.09900
H744        H  0.36792433  0.79522093  0.39309064     0.14400
H745        H  0.41055727  0.90228676  0.34888162     0.00100
H746        H  0.35438560  0.88848879  0.45596535     0.14700
H747        H  0.29447518  0.88312070  0.36495178     0.14500
C748        C  0.33734654  0.85944159  0.10017229     0.86300
C749        C  0.36241364  0.88697608  0.07947372    -0.54000
C750        C  0.38825195  0.90277264  0.10183185     0.09200
C751        C  0.38683979  0.89123430  0.14347658     0.20100
C752        C  0.36447186  0.83123231  0.11960523    -0.54700
C753        C  0.39148442  0.84747205  0.14180025     0.09300
C754        C  0.32133322  0.88495697  0.13269858    -0.54200
C755        C  0.34728249  0.90140242  0.15506511     0.09900
H756        H  0.36096028  0.89282669  0.04920419     0.14400
H757        H  0.40593357  0.90587478  0.16249745     0.00100
H758        H  0.36416906  0.80107132  0.11310039     0.14700
H759        H  0.29250309  0.89255597  0.13573919     0.14500
N760        N  0.29888084  0.83609324  0.00195497    -0.36800
N761        N  0.24360621  0.83531170  0.06054345    -0.57400
N762        N  0.18693306  0.83345292  0.99973490    -0.36800
N763        N  0.24332669  0.83507983  0.44141504    -0.57400
C764        C  0.32027907  0.83245560  0.03351772     0.26700
C765        C  0.31997626  0.82784041  0.47095294     0.26700
C766        C  0.16597342  0.83843458  0.03168936     0.26700
C767        C  0.16578273  0.84190044  0.46842126     0.26700
C768        C  0.27303035  0.83482239  0.08383364     0.35400
C769        C  0.21384220  0.83093654  0.08285605     0.35400
C770        C  0.27339007  0.82844702  0.41972436     0.35400
C771        C  0.21384969  0.82965773  0.41906168     0.35400
C772        C  0.35529368  0.82102583  0.02235200    -0.22100
C773        C  0.35506727  0.81791524  0.48322501    -0.22100
C774        C  0.13072019  0.84711042  0.02035322    -0.22100
C775        C  0.13091605  0.85107608  0.48159765    -0.22100
C776        C  0.26202035  0.82808862  0.12088773    -0.23200
C777        C  0.22447658  0.82618826  0.12037647    -0.23200
C778        C  0.26324153  0.81750256  0.38362382    -0.23200
C779        C  0.22549785  0.81775172  0.38329318    -0.23200
C780        C  0.30949399  0.84132650  0.07191065    -0.18500
C781        C  0.30980256  0.83375165  0.43177235    -0.18500
C782        C  0.17732620  0.84100099  0.42880545    -0.18500
C783        C  0.17723550  0.83626466  0.07092042    -0.18500
H784        H  0.37879567  0.81593792  0.04046139     0.14400
H785        H  0.37853124  0.81048200  0.46565326     0.14400
H786        H  0.10656668  0.84889543  0.03787755     0.14400
H787        H  0.10710153  0.85936817  0.46628642     0.14400
H788        H  0.27917652  0.82480750  0.14573862     0.12700
H789        H  0.20693061  0.82235412  0.14491485     0.12700
H790        H  0.28119930  0.81012827  0.36009308     0.12700
H791        H  0.20850423  0.81127137  0.35907105     0.12700
H792        H  0.27237427  0.84727362  0.00126852     0.25900
H793        H  0.21422653  0.82477896  0.99981058     0.25900
C794        C  0.40137979  0.65677464  0.36556741     0.86300
C795        C  0.41470737  0.62996300  0.39640148    -0.54000
C796        C  0.38917524  0.60520806  0.40907016     0.09200
C797        C  0.35155224  0.60981849  0.39229410     0.20100
C798        C  0.38431642  0.63018776  0.33560558    -0.54700
C799        C  0.35895603  0.60441870  0.34917818     0.09300
C800        C  0.36831191  0.67671699  0.38656662    -0.54200
C801        C  0.34318672  0.65201405  0.40187002     0.09900
H802        H  0.44205079  0.63060768  0.40848440     0.14400
H803        H  0.33058614  0.59088450  0.40444218     0.00100
H804        H  0.39445408  0.62945017  0.30657505     0.14700
H805        H  0.36771945  0.70676052  0.39362401     0.14500
N806        N  0.34679465  0.55904996  0.25499588    -0.36800
N807        N  0.33988905  0.00237255  0.19501318    -0.57400
N808        N  0.33804774  0.94183909  0.25384278    -0.36800
N809        N  0.34312456  0.00017403  0.31395365    -0.57400
C810        C  0.33830590  0.58080612  0.22425035     0.26700
C811        C  0.33838456  0.58010976  0.28622995     0.26700
C812        C  0.33693768  0.91969083  0.22239360     0.26700
C813        C  0.33891051  0.91831060  0.28439781     0.26700
C814        C  0.34726831  0.53323358  0.17286114     0.35400
C815        C  0.34205218  0.97092689  0.17248204     0.35400
C816        C  0.34677248  0.53120137  0.33703381     0.35400
C817        C  0.34417063  0.96802582  0.33589338     0.35400
C818        C  0.32353703  0.61542106  0.23614591    -0.22100
C819        C  0.32366027  0.61501705  0.27513466    -0.22100
C820        C  0.33603068  0.88175890  0.23320290    -0.22100
C821        C  0.33734689  0.88087323  0.27209594    -0.22100
C822        C  0.35377847  0.52063176  0.13612284    -0.23200
C823        C  0.34933382  0.98213284  0.13572255    -0.23200
C824        C  0.34901774  0.51809324  0.37414318    -0.23200
C825        C  0.34708225  0.97893720  0.37340677    -0.23200
C826        C  0.34709379  0.57207011  0.18585948    -0.18500
C827        C  0.34687068  0.57060243  0.32444317    -0.18500
C828        C  0.34294340  0.92896032  0.32301214    -0.18500
C829        C  0.33942796  0.93198398  0.18410281    -0.18500
H830        H  0.31452888  0.63895533  0.21843526     0.14400
H831        H  0.31470171  0.63816751  0.29339580     0.14400
H832        H  0.33539797  0.85705185  0.21493675     0.14400
H833        H  0.33783986  0.85531117  0.28925833     0.14400
H834        H  0.36092768  0.53593993  0.11115578     0.12700
H835        H  0.35129754  0.96471216  0.11065347     0.12700
H836        H  0.35019390  0.53399822  0.39994152     0.12700
H837        H  0.34664284  0.96085179  0.39815875     0.12700
H838        H  0.36084024  0.53301356  0.25463477     0.25900
H839        H  0.33964330  0.97113149  0.25427266     0.25900
C840        C  0.39974438  0.65949769  0.14606311     0.86300
C841        C  0.36715373  0.67694146  0.12258536    -0.54000
C842        C  0.34453828  0.65040835  0.10649488     0.09200
C843        C  0.35526505  0.60899838  0.11720049     0.20100
C844        C  0.38218478  0.63289761  0.17552612    -0.54700
C845        C  0.35920573  0.60558019  0.16105210     0.09300
C846        C  0.41721971  0.63295113  0.11712578    -0.54200
C847        C  0.39487068  0.60600035  0.10363866     0.09900
H848        H  0.36447503  0.70698079  0.11585216     0.14400
H849        H  0.33607614  0.58896736  0.10398529     0.00100
H850        H  0.39038809  0.63352850  0.20512449     0.14700
H851        H  0.44536545  0.63517217  0.10713880     0.14500
N852        N  0.25019914  0.65797582  0.44562988    -0.36800
N853        N  0.19274550  0.66091401  0.00425584    -0.57400
N854        N  0.24900869  0.66459807  0.06426690    -0.36800
N855        N  0.30678782  0.66225700  0.00481405    -0.57400
C856        C  0.22015100  0.66247612  0.42344531     0.26700
C857        C  0.27973108  0.66582157  0.42368646     0.26700
C858        C  0.21862424  0.65944448  0.08614818     0.26700
C859        C  0.27888594  0.65837289  0.08663301     0.26700
C860        C  0.17114848  0.66080002  0.47270878     0.35400
C861        C  0.17034315  0.66474061  0.03518409     0.35400
C862        C  0.32888722  0.66135490  0.47333430     0.35400
C863        C  0.32861911  0.66132284  0.03627867     0.35400
C864        C  0.23066527  0.67447545  0.38756943    -0.22100
C865        C  0.26826085  0.67598886  0.38752774    -0.22100
C866        C  0.22943160  0.65100623  0.12297635    -0.22100
C867        C  0.26713410  0.65039554  0.12331475    -0.22100
C868        C  0.13482264  0.66602705  0.48386343    -0.23200
C869        C  0.13432360  0.66825613  0.02297165    -0.23200
C870        C  0.36512714  0.66066242  0.48509450    -0.23200
C871        C  0.36497645  0.66066572  0.02443173    -0.23200
C872        C  0.18359092  0.65460593  0.43413133    -0.18500
C873        C  0.31691715  0.66176744  0.43422617    -0.18500
C874        C  0.31655998  0.65894024  0.07540374    -0.18500
C875        C  0.18128522  0.66164810  0.07428715    -0.18500
H876        H  0.21303252  0.68136314  0.36377195     0.14400
H877        H  0.28528079  0.68381844  0.36358955     0.14400
H878        H  0.21199136  0.64541113  0.14721031     0.14400
H879        H  0.28392181  0.64420879  0.14792104     0.14400
H880        H  0.11093711  0.66797737  0.46576064     0.12700
H881        H  0.11000132  0.67189004  0.04036026     0.12700
H882        H  0.38932785  0.66117375  0.46730111     0.12700
H883        H  0.38908241  0.66050746  0.04221745     0.12700
H884        H  0.25063721  0.64725996  0.47311847     0.25900
H885        H  0.24929663  0.67216621  0.03582473     0.25900
C886        C  0.14346931  0.89952338  0.33987166     0.86300
C887        C  0.11795114  0.86759396  0.32376365    -0.54000
C888        C  0.09972872  0.84677031  0.35129750     0.09200
C889        C  0.11108161  0.85805800  0.39206337     0.20100
C890        C  0.11687049  0.92088245  0.36470652    -0.54700
C891        C  0.10158781  0.90053403  0.39250895     0.09300
C892        C  0.16987811  0.87940435  0.36771815    -0.54200
C893        C  0.15387523  0.85723715  0.39568192     0.09900
H894        H  0.11175783  0.86450945  0.29383421     0.14400
H895        H  0.09601164  0.84045802  0.41264135     0.00100
H896        H  0.10843084  0.95011819  0.35899692     0.14700
H897        H  0.19896524  0.88547664  0.36703629     0.14500
N898        N  0.44415226  0.75110598  0.35145099    -0.36800
N899        N  0.49882708  0.81038019  0.34630622    -0.57400
N900        N  0.05754044  0.74992470  0.34637921    -0.36800
N901        N  0.50218655  0.69097992  0.34686350    -0.57400
C902        C  0.42362071  0.78211299  0.34186411     0.26700
C903        C  0.42478336  0.72030885  0.34118415     0.26700
C904        C  0.07770900  0.78095953  0.33759581     0.26700
C905        C  0.07910707  0.71851939  0.33999347     0.26700
C906        C  0.46837230  0.83237789  0.35526101     0.35400
C907        C  0.02955202  0.83201450  0.34996133     0.35400
C908        C  0.47162952  0.66895929  0.34929802     0.35400
C909        C  0.03269643  0.66765667  0.34944756     0.35400
C910        C  0.39172855  0.77079765  0.32400886    -0.22100
C911        C  0.39239694  0.73172970  0.32378552    -0.22100
C912        C  0.11208155  0.76904723  0.32483049    -0.22100
C913        C  0.11284760  0.72993256  0.32603400    -0.22100
C914        C  0.48028819  0.86844699  0.36426588    -0.23200
C915        C  0.01806594  0.86844119  0.35951941    -0.23200
C916        C  0.48302631  0.63125771  0.35054444    -0.23200
C917        C  0.02075098  0.63051127  0.35194430    -0.23200
C918        C  0.43050073  0.81981538  0.35353635    -0.18500
C919        C  0.43369256  0.68238387  0.35089900    -0.18500
C920        C  0.07063407  0.67992005  0.34900273    -0.18500
C921        C  0.06759290  0.81969956  0.34426699    -0.18500
H922        H  0.36958615  0.78891298  0.31367893     0.14400
H923        H  0.37102194  0.71368648  0.31306150     0.14400
H924        H  0.13463826  0.78672620  0.31613298     0.14400
H925        H  0.13600969  0.71184802  0.31818811     0.14400
H926        H  0.46422618  0.89293181  0.37262273     0.12700
H927        H  0.03479263  0.89314437  0.36118103     0.12700
H928        H  0.46607901  0.60631133  0.35023004     0.12700
H929        H  0.03630828  0.60461637  0.35350492     0.12700
H930        H  0.46795346  0.75083458  0.36776039     0.25900
H931        H  0.03178668  0.75040971  0.35911467     0.25900
C932        C  0.15719990  0.63851285  0.40321789     0.86300
C933        C  0.13016671  0.66816293  0.38573812    -0.54000
C934        C  0.10381169  0.65421985  0.36136696     0.09200
C935        C  0.10907954  0.61027099  0.35594221     0.20100
C936        C  0.13261166  0.60854092  0.42044546    -0.54700
C937        C  0.10701820  0.59497195  0.39653325     0.09300
C938        C  0.17446873  0.61618198  0.36908177    -0.54200
C939        C  0.14947142  0.60072908  0.34477123     0.09900
H940        H  0.13009325  0.69758939  0.39503674     0.14400
H941        H  0.09017676  0.59701278  0.33562885     0.00100
H942        H  0.13363951  0.59991213  0.45006822     0.14700
H943        H  0.20346632  0.60898380  0.36681641     0.14500
N944        N  0.15805375  0.94161459  0.24457298    -0.36800
N945        N  0.16438065  0.50006159  0.30373499    -0.57400
N946        N  0.15449635  0.55923850  0.24682359    -0.36800
N947        N  0.15478534  0.50094312  0.18657704    -0.57400
C948        C  0.16640443  0.91926811  0.27463684     0.26700
C949        C  0.16274215  0.92005529  0.21316720     0.26700
C950        C  0.16175766  0.58106015  0.27755871     0.26700
C951        C  0.15873682  0.58134105  0.21568954     0.26700
C952        C  0.16747723  0.96820333  0.32561461     0.35400
C953        C  0.16373665  0.53085356  0.32735192     0.35400
C954        C  0.15022667  0.96972096  0.16403993     0.35400
C955        C  0.14858865  0.53266314  0.16487853     0.35400
C956        C  0.17734579  0.88344700  0.26240322    -0.22100
C957        C  0.17516668  0.88393170  0.22347420    -0.22100
C958        C  0.17097112  0.61725458  0.26594241    -0.22100
C959        C  0.16975870  0.61727233  0.22695557    -0.22100
C960        C  0.17162932  0.97942564  0.36325133    -0.27000
C961        C  0.16822482  0.51859657  0.36439824    -0.23200
C962        C  0.14316114  0.98213898  0.12766722    -0.23200
C963        C  0.14160615  0.52098923  0.12822080    -0.23200
C964        C  0.16149471  0.92944103  0.31287588    -0.18500
C965        C  0.15208233  0.93049468  0.17600410    -0.18500
C966        C  0.14920660  0.57159531  0.17779950    -0.18500
C967        C  0.15901787  0.56983885  0.31594601    -0.18500
H968        H  0.18536961  0.85934544  0.27984588     0.14400
H969        H  0.18094620  0.86007148  0.20485171     0.14400
H970        H  0.17801576  0.64110913  0.28374185     0.14400
H971        H  0.17531417  0.64145600  0.20891488     0.14400
H972        H  0.17504827  0.96110942  0.38775147     0.12700
H973        H  0.16921863  0.53598778  0.38967871     0.12700
H974        H  0.14127422  0.96600163  0.10217764     0.12700
H975        H  0.13709342  0.53747014  0.10321139     0.12700
H976        H  0.14624838  0.96861644  0.24582221     0.25900
H977        H  0.14416654  0.53197695  0.24722156     0.25900
C978        C  0.09465533  0.66058061  0.14080905     0.86300
C979        C  0.11049489  0.63117480  0.16875699    -0.54000
C980        C  0.13474857  0.60469050  0.15355009     0.09200
C981        C  0.14088569  0.61096492  0.11031462     0.20100
C982        C  0.12864414  0.67861287  0.12063090    -0.54700
C983        C  0.15231872  0.65245886  0.10388945     0.09300
C984        C  0.07868568  0.63712122  0.10903618    -0.54200
C985        C  0.10220816  0.61101324  0.09389503     0.09900
H986        H  0.10130761  0.63025215  0.19811557     0.14400
H987        H  0.16063888  0.59098264  0.09660355     0.00100
H988        H  0.13151543  0.70892855  0.11605589     0.14700
H989        H  0.05031818  0.63980507  0.09976436     0.14500
C990        C  0.09292057  0.84731576  0.13819905     0.86300
C991        C  0.07957967  0.87307331  0.10654172    -0.54000
C992        C  0.10514251  0.89703612  0.09277226     0.09200
C993        C  0.14325369  0.89180495  0.10903812     0.20100
C994        C  0.12516167  0.82574350  0.11774332    -0.54700
C995        C  0.15077605  0.84903200  0.10162539     0.09300
C996        C  0.11091015  0.87415907  0.16691183    -0.54200
C997        C  0.13694791  0.89817592  0.15208620     0.09900
H998        H  0.05224544  0.87213909  0.09448581     0.14400
H999        H  0.16446767  0.90989961  0.09596312     0.00100
H1000       H  0.12521927  0.79541683  0.11201789     0.14700
H1001       H  0.10167537  0.87580500  0.19623719     0.14500
N1002       N  0.05137546  0.75496266  0.15710912    -0.36800
N1003       N  0.49675952  0.69703066  0.16499465    -0.57400
N1004       N  0.43857190  0.75533541  0.15905070    -0.36800
N1005       N  0.49306613  0.81414164  0.15925696    -0.57400
C1006       C  0.07261890  0.72461015  0.16639375     0.26700
C1007       C  0.07062948  0.78594123  0.16613858     0.26700
C1008       C  0.41903396  0.72462519  0.16927340     0.26700
C1009       C  0.41734546  0.78631741  0.16682000     0.26700
C1010       C  0.02733380  0.67414268  0.16418853     0.35400
C1011       C  0.46709384  0.67414950  0.16683083     0.35400
C1012       C  0.02333458  0.83625776  0.15565460     0.35400
C1013       C  0.46252913  0.83689001  0.15441967     0.35400
C1014       C  0.10511100  0.73616436  0.18253273    -0.22100
C1015       C  0.10377567  0.77520588  0.18260729    -0.22100
C1016       C  0.38558696  0.73599758  0.18456497    -0.22100
C1017       C  0.38456098  0.77504686  0.18322532    -0.22100
C1018       C  0.01704618  0.63658532  0.16803217    -0.23200
C1019       C  0.47926423  0.63662991  0.17034929    -0.23200
C1020       C  0.01173966  0.87365910  0.15173524    -0.23200
C1021       C  0.47420648  0.87386124  0.14918117    -0.23200
C1022       C  0.06417802  0.68692319  0.15819294    -0.18500
C1023       C  0.06118358  0.82307102  0.15492924    -0.18500
C1024       C  0.42494514  0.82403699  0.15563517    -0.18500
C1025       C  0.42939140  0.68658132  0.16225179    -0.18500
H1026       H  0.12755214  0.71826702  0.19254776     0.14400
H1027       H  0.12528094  0.79367386  0.19227447     0.14400
H1028       H  0.36398969  0.71791498  0.19494585     0.14400
H1029       H  0.36181139  0.79314074  0.19219888     0.14400
H1030       H  0.03481675  0.61162568  0.16897188     0.12700
H1031       H  0.46262190  0.61160971  0.17334652     0.12700
H1032       H  0.02841861  0.89878637  0.15066622     0.12700
H1033       H  0.45890426  0.89946328  0.14471852     0.12700
H1034       H  0.02698429  0.75456076  0.14183492     0.25900
H1035       H  0.46325881  0.75484058  0.14412910     0.25900
N1036       N  0.04308220  0.54560904  0.56454396    -0.06400
N1037       N  0.07157695  0.55231960  0.58596343    -0.58500
N1038       N  0.45695979  0.56914340  0.54465378    -0.06000
N1039       N  0.42738684  0.59054592  0.54776165    -0.60600
N1040       N  0.45884404  0.54422969  0.57211492    -0.05600
N1041       N  0.43074060  0.54879734  0.59530332    -0.58400
N1042       N  0.04092281  0.57047463  0.53700659    -0.05300
N1043       N  0.06782165  0.59467872  0.53891452    -0.61000
C1044       C  0.08702655  0.58286383  0.56952532     0.95800
C1045       C  0.41114409  0.57781829  0.57946914     0.95600
N1046       N  0.44831237  0.54195194  0.93578243    -0.06500
N1047       N  0.41768400  0.54596834  0.91685284    -0.59000
N1048       N  0.03237341  0.57038297  0.95133949    -0.04700
N1049       N  0.05977643  0.59309378  0.94516687    -0.60300
N1050       N  0.03092420  0.54432950  0.92492630    -0.06600
N1051       N  0.05722652  0.54849621  0.89961217    -0.59300
N1052       N  0.44969461  0.56694845  0.96294802    -0.04300
N1053       N  0.41988044  0.58803906  0.96395458    -0.60400
Mn1054     Mn  0.99532703  0.57111236  0.49903183     1.18400
C1055       C  0.40075505  0.57586884  0.93393938     0.97900
C1056       C  0.07472080  0.57904446  0.91297145     0.98600
N1057       N  0.46251039  0.95735772  0.57476260    -0.06600
N1058       N  0.43578448  0.95219526  0.59945591    -0.62900
N1059       N  0.04416074  0.93500340  0.53734126    -0.05400
N1060       N  0.07375259  0.91347635  0.53717426    -0.63600
N1061       N  0.04554040  0.96034328  0.56431806    -0.06100
N1062       N  0.07586442  0.95606959  0.58372922    -0.63200
N1063       N  0.46143754  0.93182893  0.54777367    -0.05000
N1064       N  0.43415481  0.90875671  0.55279295    -0.63900
Mn1065     Mn  0.00256647  0.50196179  0.57152390     1.10700
C1066       C  0.41859661  0.92183422  0.58486242     0.99100
C1067       C  0.09288832  0.92590607  0.56720209     0.99200
N1068       N  0.03272076  0.95748109  0.92853312    -0.06100
N1069       N  0.05761844  0.95154640  0.90264747    -0.61500
N1070       N  0.45372023  0.93224793  0.96191569    -0.05400
N1071       N  0.42839197  0.90693557  0.95737880    -0.58200
N1072       N  0.45224949  0.95768597  0.93476811    -0.06700
N1073       N  0.42623592  0.95061531  0.91055919    -0.61000
N1074       N  0.03417460  0.93067012  0.95424356    -0.05700
N1075       N  0.05973128  0.90518878  0.94656671    -0.58200
Mn1076     Mn  0.49117155  0.00055808  0.92907316     1.20200
Mn1077     Mn  0.49824072  0.93063013  0.00076595     1.10100
Cl1078     Cl  0.99705345  0.50098494  0.50010991    -0.86200
C1079       C  0.07412529  0.91912125  0.91463160     0.96100
C1080       C  0.41175796  0.91939955  0.92560052     0.95900
C1081       C  0.33785467  0.85236346  0.90399661     0.86300
C1082       C  0.36771458  0.82544549  0.88678325    -0.54000
C1083       C  0.39580996  0.84281466  0.86663768     0.09200
C1084       C  0.38943701  0.88669372  0.86497351     0.20100
C1085       C  0.35935599  0.88113400  0.92637137    -0.54700
C1086       C  0.38615575  0.89743831  0.90653251     0.09300
C1087       C  0.32334365  0.87730719  0.87019098    -0.54200
C1088       C  0.35031820  0.89636807  0.85066750     0.09900
H1089       H  0.36792437  0.79522091  0.89309066     0.14400
H1090       H  0.41055728  0.90228677  0.84888161     0.00100
H1091       H  0.35438555  0.88848889  0.95596533     0.14700
H1092       H  0.29447521  0.88312067  0.86495176     0.14500
C1093       C  0.33734656  0.85944156  0.60017229     0.86300
C1094       C  0.36241367  0.88697604  0.57947371    -0.54000
C1095       C  0.38825198  0.90277261  0.60183183     0.09200
C1096       C  0.38683979  0.89123428  0.64347656     0.20100
C1097       C  0.36447189  0.83123235  0.61960525    -0.54700
C1098       C  0.39148445  0.84747205  0.64180024     0.09300
C1099       C  0.32133324  0.88495691  0.63269857    -0.54200
C1100       C  0.34728250  0.90140241  0.65506509     0.09900
H1101       H  0.36096030  0.89282666  0.54920418     0.14400
H1102       H  0.40593360  0.90587480  0.66249745     0.00100
H1103       H  0.36416907  0.80107126  0.61310041     0.14700
H1104       H  0.29250310  0.89255586  0.63573919     0.14500
N1105       N  0.29888083  0.83609319  0.50195497    -0.36800
N1106       N  0.24360623  0.83531164  0.56054344    -0.57400
N1107       N  0.18693300  0.83345295  0.49973491    -0.36800
N1108       N  0.24332671  0.83507976  0.94141505    -0.57400
C1109       C  0.32027909  0.83245560  0.53351771     0.26700
C1110       C  0.31997627  0.82784045  0.97095294     0.26700
C1111       C  0.16597338  0.83843454  0.53168937     0.26700
C1112       C  0.16578275  0.84190039  0.96842125     0.26700
C1113       C  0.27303037  0.83482233  0.58383363     0.35400
C1114       C  0.21384221  0.83093648  0.58285604     0.35400
C1115       C  0.27339009  0.82844702  0.91972435     0.35400
C1116       C  0.21384970  0.82965768  0.91906168     0.35400
C1117       C  0.35529372  0.82102592  0.52235198    -0.22100
C1118       C  0.35506730  0.81791530  0.98322501    -0.22100
C1119       C  0.13072013  0.84711038  0.52035322    -0.22100
C1120       C  0.13091608  0.85107603  0.98159764    -0.22100
C1121       C  0.26202036  0.82808859  0.62088772    -0.23200
C1122       C  0.22447660  0.82618821  0.62037646    -0.23200
C1123       C  0.26324156  0.81750266  0.88362377    -0.23200
C1124       C  0.22549788  0.81775171  0.88329317    -0.23200
C1125       C  0.30949401  0.84132645  0.57191065    -0.18500
C1126       C  0.30980259  0.83375164  0.93177235    -0.18500
C1127       C  0.17732622  0.84100093  0.92880544    -0.18500
C1128       C  0.17723548  0.83626460  0.57092042    -0.18500
H1129       H  0.37879575  0.81593817  0.54046135     0.14400
H1130       H  0.37853126  0.81048214  0.96565327     0.14400
H1131       H  0.10656661  0.84889536  0.53787753     0.14400
H1132       H  0.10710154  0.85936809  0.96628644     0.14400
H1133       H  0.27917653  0.82480750  0.64573863     0.12700
H1134       H  0.20693063  0.82235410  0.64491484     0.12700
H1135       H  0.28119932  0.81012843  0.86009304     0.12700
H1136       H  0.20850426  0.81127130  0.85907105     0.12700
H1137       H  0.27237425  0.84727355  0.50126854     0.25900
H1138       H  0.21422649  0.82477905  0.49981057     0.25900
C1139       C  0.40137979  0.65677463  0.86556742     0.86300
C1140       C  0.41470736  0.62996295  0.89640147    -0.54000
C1141       C  0.38917523  0.60520803  0.90907014     0.09200
C1142       C  0.35155221  0.60981845  0.89229411     0.20100
C1143       C  0.38431637  0.63018781  0.83560558    -0.54700
C1144       C  0.35895598  0.60441874  0.84917817     0.09300
C1145       C  0.36831193  0.67671696  0.88656665    -0.54200
C1146       C  0.34318673  0.65201402  0.90187004     0.09900
H1147       H  0.44205077  0.63060764  0.90848442     0.14400
H1148       H  0.33058616  0.59088449  0.90444217     0.00100
H1149       H  0.39445403  0.62945025  0.80657504     0.14700
H1150       H  0.36771946  0.70676049  0.89362403     0.14500
N1151       N  0.34679467  0.55904994  0.75499585    -0.36800
N1152       N  0.33988902  0.00237254  0.69501317    -0.57400
N1153       N  0.33804770  0.94183907  0.75384275    -0.36800
N1154       N  0.34312458  0.00017403  0.81395363    -0.57400
C1155       C  0.33830592  0.58080618  0.72425035     0.26700
C1156       C  0.33838458  0.58010979  0.78622992     0.26700
C1157       C  0.33693760  0.91969081  0.72239357     0.26700
C1158       C  0.33891046  0.91831059  0.78439779     0.26700
C1159       C  0.34726822  0.53323361  0.67286112     0.35400
C1160       C  0.34205209  0.97092690  0.67248199     0.35400
C1161       C  0.34677250  0.53120139  0.83703379     0.35400
C1162       C  0.34417065  0.96802582  0.83589335     0.35400
C1163       C  0.32353708  0.61542110  0.73614593    -0.22100
C1164       C  0.32366030  0.61501710  0.77513466    -0.22100
C1165       C  0.33603061  0.88175890  0.73320291    -0.22100
C1166       C  0.33734673  0.88087325  0.77209594    -0.22100
C1167       C  0.35377835  0.52063176  0.63612281    -0.23200
C1168       C  0.34933379  0.98213290  0.63572250    -0.23200
C1169       C  0.34901771  0.51809331  0.87414319    -0.23200
C1170       C  0.34708223  0.97893717  0.87340675    -0.23200
C1171       C  0.34709378  0.57207015  0.68585946    -0.18500
C1172       C  0.34687068  0.57060247  0.82444314    -0.18500
C1173       C  0.34294342  0.92896032  0.82301211    -0.18500
C1174       C  0.33942791  0.93198397  0.68410278    -0.18500
H1175       H  0.31452892  0.63895546  0.71843527     0.14400
H1176       H  0.31470169  0.63816753  0.79339579     0.14400
H1177       H  0.33539799  0.85705176  0.71493677     0.14400
H1178       H  0.33783960  0.85531119  0.78925836     0.14400
H1179       H  0.36092757  0.53593990  0.61115575     0.12700
H1180       H  0.35129761  0.96471230  0.61065343     0.12700
H1181       H  0.35019395  0.53399824  0.89994148     0.12700
H1182       H  0.34664287  0.96085173  0.89815870     0.12700
H1183       H  0.36084024  0.53301358  0.75463473     0.25900
H1184       H  0.33964340  0.97113147  0.75427263     0.25900
C1185       C  0.39974438  0.65949777  0.64606310     0.86300
C1186       C  0.36715370  0.67694148  0.62258535    -0.54000
C1187       C  0.34453830  0.65040835  0.60649486     0.09200
C1188       C  0.35526512  0.60899842  0.61720050     0.20100
C1189       C  0.38218482  0.63289766  0.67552611    -0.54700
C1190       C  0.35920575  0.60558024  0.66105211     0.09300
C1191       C  0.41721973  0.63295123  0.61712576    -0.54200
C1192       C  0.39487074  0.60600041  0.60363868     0.09900
H1193       H  0.36447493  0.70698082  0.61585216     0.14400
H1194       H  0.33607620  0.58896734  0.60398531     0.00100
H1195       H  0.39038819  0.63352852  0.70512446     0.14700
H1196       H  0.44536548  0.63517233  0.60713879     0.14500
N1197       N  0.25019914  0.65797577  0.94562990    -0.36800
N1198       N  0.19274551  0.66091398  0.50425583    -0.57400
N1199       N  0.24900872  0.66459802  0.56426689    -0.36800
N1200       N  0.30678782  0.66225696  0.50481407    -0.57400
C1201       C  0.22015099  0.66247610  0.92344532     0.26700
C1202       C  0.27973107  0.66582152  0.92368644     0.26700
C1203       C  0.21862426  0.65944446  0.58614817     0.26700
C1204       C  0.27888596  0.65837283  0.58663300     0.26700
C1205       C  0.17114847  0.66080002  0.97270878     0.35400
C1206       C  0.17034316  0.66474060  0.53518409     0.35400
C1207       C  0.32888722  0.66135499  0.97333430     0.35400
C1208       C  0.32861913  0.66132290  0.53627867     0.35400
C1209       C  0.23066525  0.67447540  0.88756946    -0.22100
C1210       C  0.26826079  0.67598879  0.88752774    -0.22100
C1211       C  0.22943162  0.65100618  0.62297634    -0.22100
C1212       C  0.26713412  0.65039547  0.62331474    -0.22100
C1213       C  0.13482264  0.66602704  0.98386343    -0.23200
C1214       C  0.13432361  0.66825610  0.52297166    -0.23200
C1215       C  0.36512712  0.66066244  0.98509452    -0.23200
C1216       C  0.36497646  0.66066575  0.52443172    -0.23200
C1217       C  0.18359091  0.65460598  0.93413133    -0.18500
C1218       C  0.31691715  0.66176744  0.93422616    -0.18500
C1219       C  0.31656000  0.65894022  0.57540373    -0.18500
C1220       C  0.18128523  0.66164814  0.57428716    -0.18500
H1221       H  0.21303243  0.68136314  0.86377197     0.14400
H1222       H  0.28528072  0.68381843  0.86358948     0.14400
H1223       H  0.21199138  0.64541110  0.64721030     0.14400
H1224       H  0.28392183  0.64420873  0.64792103     0.14400
H1225       H  0.11093714  0.66797740  0.96576061     0.12700
H1226       H  0.11000134  0.67188998  0.54036028     0.12700
H1227       H  0.38932790  0.66117370  0.96730112     0.12700
H1228       H  0.38908243  0.66050743  0.54221744     0.12700
H1229       H  0.25063721  0.64725994  0.97311848     0.25900
H1230       H  0.24929665  0.67216619  0.53582473     0.25900
C1231       C  0.14346935  0.89952337  0.83987165     0.86300
C1232       C  0.11795116  0.86759397  0.82376363    -0.54000
C1233       C  0.09972870  0.84677036  0.85129749     0.09200
C1234       C  0.11108161  0.85805802  0.89206338     0.20100
C1235       C  0.11687053  0.92088246  0.86470650    -0.54700
C1236       C  0.10158786  0.90053405  0.89250895     0.09300
C1237       C  0.16987814  0.87940432  0.86771812    -0.54200
C1238       C  0.15387525  0.85723714  0.89568191     0.09900
H1239       H  0.11175789  0.86450941  0.79383420     0.14400
H1240       H  0.09601161  0.84045812  0.91264133     0.00100
H1241       H  0.10843086  0.95011819  0.85899689     0.14700
H1242       H  0.19896528  0.88547657  0.86703626     0.14500
N1243       N  0.44415227  0.75110595  0.85145104    -0.36800
N1244       N  0.49882709  0.81038015  0.84630622    -0.57400
N1245       N  0.05754056  0.74992467  0.84637915    -0.36800
N1246       N  0.50218653  0.69097990  0.84686349    -0.57400
C1247       C  0.42362067  0.78211294  0.84186423     0.26700
C1248       C  0.42478336  0.72030883  0.84118419     0.26700
C1249       C  0.07770904  0.78095953  0.83759580     0.26700
C1250       C  0.07910710  0.71851936  0.83999345     0.26700
C1251       C  0.46837231  0.83237785  0.85526100     0.35400
C1252       C  0.02955204  0.83201448  0.84996133     0.35400
C1253       C  0.47162948  0.66895932  0.84929801     0.35400
C1254       C  0.03269646  0.66765664  0.84944755     0.35400
C1255       C  0.39172851  0.77079759  0.82400896    -0.22100
C1256       C  0.39239690  0.73172964  0.82378563    -0.22100
C1257       C  0.11208160  0.76904722  0.82483048    -0.22100
C1258       C  0.11284763  0.72993253  0.82603400    -0.22100
C1259       C  0.48028818  0.86844696  0.86426588    -0.23200
C1260       C  0.01806595  0.86844116  0.85951941    -0.23200
C1261       C  0.48302619  0.63125775  0.85054442    -0.23200
C1262       C  0.02075098  0.63051125  0.85194429    -0.23200
C1263       C  0.43050072  0.81981534  0.85353637    -0.18500
C1264       C  0.43369256  0.68238387  0.85089901    -0.18500
C1265       C  0.07063410  0.67992001  0.84900272    -0.18500
C1266       C  0.06759292  0.81969956  0.84426697    -0.18500
H1267       H  0.36958616  0.78891292  0.81367890     0.14400
H1268       H  0.37102195  0.71368641  0.81306164     0.14400
H1269       H  0.13463829  0.78672613  0.81613298     0.14400
H1270       H  0.13600971  0.71184798  0.81818810     0.14400
H1271       H  0.46422622  0.89293175  0.87262272     0.12700
H1272       H  0.03479263  0.89314435  0.86118102     0.12700
H1273       H  0.46607878  0.60631141  0.85022996     0.12700
H1274       H  0.03630825  0.60461632  0.85350485     0.12700
H1275       H  0.46795352  0.75083455  0.86776034     0.25900
H1276       H  0.03178675  0.75040969  0.85911464     0.25900
C1277       C  0.15719992  0.63851283  0.90321789     0.86300
C1278       C  0.13016673  0.66816290  0.88573809    -0.54000
C1279       C  0.10381172  0.65421982  0.86136693     0.09200
C1280       C  0.10907955  0.61027098  0.85594221     0.20100
C1281       C  0.13261166  0.60854092  0.92044547    -0.54700
C1282       C  0.10701816  0.59497201  0.89653325     0.09300
C1283       C  0.17446876  0.61618193  0.86908178    -0.54200
C1284       C  0.14947144  0.60072903  0.84477125     0.09900
H1285       H  0.13009326  0.69758935  0.89503672     0.14400
H1286       H  0.09017675  0.59701277  0.83562887     0.00100
H1287       H  0.13363951  0.59991211  0.95006822     0.14700
H1288       H  0.20346634  0.60898375  0.86681641     0.14500
N1289       N  0.15805357  0.94161466  0.74457298    -0.36800
N1290       N  0.16438067  0.50006158  0.80373496    -0.57400
N1291       N  0.15449639  0.55923867  0.74682359    -0.36800
N1292       N  0.15478537  0.50094315  0.68657705    -0.57400
C1293       C  0.16640436  0.91926814  0.77463682     0.26700
C1294       C  0.16274207  0.92005535  0.71316720     0.26700
C1295       C  0.16175767  0.58106020  0.77755871     0.26700
C1296       C  0.15873686  0.58134109  0.71568952     0.26700
C1297       C  0.16747724  0.96820333  0.82561460     0.35400
C1298       C  0.16373667  0.53085356  0.82735188     0.35400
C1299       C  0.15022648  0.96972095  0.66403994     0.35400
C1300       C  0.14858867  0.53266318  0.66487852     0.35400
C1301       C  0.17734568  0.88344705  0.76240319    -0.22100
C1302       C  0.17516669  0.88393178  0.72347417    -0.22100
C1303       C  0.17097116  0.61725464  0.76594240    -0.22100
C1304       C  0.16975875  0.61727236  0.72695555    -0.22100
C1305       C  0.17162935  0.97942564  0.86325131    -0.27000
C1306       C  0.16822484  0.51859660  0.86439821    -0.23200
C1307       C  0.14316095  0.98213897  0.62766724    -0.23200
C1308       C  0.14160617  0.52098925  0.62822079    -0.23200
C1309       C  0.16149473  0.92944106  0.81287587    -0.18500
C1310       C  0.15208221  0.93049471  0.67600410    -0.18500
C1311       C  0.14920663  0.57159532  0.67779949    -0.18500
C1312       C  0.15901789  0.56983886  0.81594600    -0.18500
H1313       H  0.18536944  0.85934547  0.77984586     0.14400
H1314       H  0.18094630  0.86007160  0.70485169     0.14400
H1315       H  0.17801583  0.64110919  0.78374182     0.14400
H1316       H  0.17531423  0.64145600  0.70891482     0.14400
H1317       H  0.17504829  0.96110940  0.88775145     0.12700
H1318       H  0.16921864  0.53598784  0.88967866     0.12700
H1319       H  0.14127404  0.96600160  0.60217766     0.12700
H1320       H  0.13709342  0.53747015  0.60321137     0.12700
H1321       H  0.14624805  0.96861643  0.74582223     0.25900
H1322       H  0.14416655  0.53197706  0.74722158     0.25900
C1323       C  0.09465532  0.66058057  0.64080907     0.86300
C1324       C  0.11049490  0.63117475  0.66875698    -0.54000
C1325       C  0.13474859  0.60469048  0.65355007     0.09200
C1326       C  0.14088572  0.61096490  0.61031460     0.20100
C1327       C  0.12864414  0.67861284  0.62063092    -0.54700
C1328       C  0.15231873  0.65245886  0.60388945     0.09300
C1329       C  0.07868565  0.63712118  0.60903617    -0.54200
C1330       C  0.10220817  0.61101320  0.59389502     0.09900
H1331       H  0.10130764  0.63025208  0.69811557     0.14400
H1332       H  0.16063893  0.59098265  0.59660352     0.00100
H1333       H  0.13151542  0.70892852  0.61605592     0.14700
H1334       H  0.05031823  0.63980502  0.59976434     0.14500
C1335       C  0.09292057  0.84731575  0.63819909     0.86300
C1336       C  0.07957969  0.87307327  0.60654174    -0.54000
C1337       C  0.10514253  0.89703606  0.59277226     0.09200
C1338       C  0.14325369  0.89180489  0.60903814     0.20100
C1339       C  0.12516168  0.82574347  0.61774336    -0.54700
C1340       C  0.15077606  0.84903195  0.60162541     0.09300
C1341       C  0.11091013  0.87415909  0.66691181    -0.54200
C1342       C  0.13694789  0.89817591  0.65208621     0.09900
H1343       H  0.05224546  0.87213905  0.59448584     0.14400
H1344       H  0.16446771  0.90989957  0.59596312     0.00100
H1345       H  0.12521927  0.79541681  0.61201791     0.14700
H1346       H  0.10167527  0.87580516  0.69623724     0.14500
N1347       N  0.05137544  0.75496262  0.65710909    -0.36800
N1348       N  0.49675952  0.69703072  0.66499465    -0.57400
N1349       N  0.43857193  0.75533547  0.65905069    -0.36800
N1350       N  0.49306612  0.81414162  0.65925695    -0.57400
C1351       C  0.07261890  0.72461014  0.66639377     0.26700
C1352       C  0.07062943  0.78594122  0.66613855     0.26700
C1353       C  0.41903397  0.72462526  0.66927340     0.26700
C1354       C  0.41734548  0.78631745  0.66681999     0.26700
C1355       C  0.02733378  0.67414270  0.66418855     0.35400
C1356       C  0.46709382  0.67414958  0.66683088     0.35400
C1357       C  0.02333457  0.83625773  0.65565458     0.35400
C1358       C  0.46252912  0.83688999  0.65441968     0.35400
C1359       C  0.10511099  0.73616442  0.68253273    -0.22100
C1360       C  0.10377560  0.77520593  0.68260731    -0.22100
C1361       C  0.38558696  0.73599764  0.68456498    -0.22100
C1362       C  0.38456101  0.77504693  0.68322531    -0.22100
C1363       C  0.01704616  0.63658538  0.66803221    -0.23200
C1364       C  0.47926417  0.63662999  0.67034943    -0.23200
C1365       C  0.01173965  0.87365907  0.65173523    -0.23200
C1366       C  0.47420645  0.87386124  0.64918117    -0.23200
C1367       C  0.06417805  0.68692317  0.65819303    -0.18500
C1368       C  0.06118355  0.82307099  0.65492923    -0.18500
C1369       C  0.42494515  0.82403702  0.65563516    -0.18500
C1370       C  0.42939140  0.68658140  0.66225179    -0.18500
H1371       H  0.12755217  0.71826710  0.69254778     0.14400
H1372       H  0.12528078  0.79367398  0.69227451     0.14400
H1373       H  0.36398971  0.71791510  0.69494585     0.14400
H1374       H  0.36181142  0.79314082  0.69219886     0.14400
H1375       H  0.03481676  0.61162575  0.66897187     0.12700
H1376       H  0.46262182  0.61160980  0.67334671     0.12700
H1377       H  0.02841863  0.89878632  0.65066623     0.12700
H1378       H  0.45890424  0.89946328  0.64471851     0.12700
H1379       H  0.02698429  0.75456068  0.64183488     0.25900
H1380       H  0.46325883  0.75484063  0.64412906     0.25900
N1381       N  0.54308220  0.04560906  0.06454399    -0.06400
N1382       N  0.57157695  0.05231958  0.08596344    -0.58500
N1383       N  0.95695976  0.06914334  0.04465378    -0.06000
N1384       N  0.92738685  0.09054594  0.04776167    -0.60600
N1385       N  0.95884395  0.04422963  0.07211491    -0.05600
N1386       N  0.93074051  0.04879730  0.09530330    -0.58400
N1387       N  0.54092284  0.07047460  0.03700659    -0.05300
N1388       N  0.56782171  0.09467868  0.03891451    -0.61000
C1389       C  0.58702657  0.08286381  0.06952534     0.95800
C1390       C  0.91114407  0.07781831  0.07946914     0.95600
N1391       N  0.94831226  0.04195196  0.43578242    -0.06500
N1392       N  0.91768388  0.04596833  0.41685286    -0.59000
N1393       N  0.53237339  0.07038304  0.45133947    -0.04700
N1394       N  0.55977645  0.09309378  0.44516691    -0.60300
N1395       N  0.53092415  0.04432955  0.42492627    -0.06600
N1396       N  0.55722653  0.04849622  0.39961220    -0.59300
N1397       N  0.94969451  0.06694847  0.46294803    -0.04300
N1398       N  0.91988030  0.08803902  0.46395461    -0.60400
Mn1399     Mn  0.49532706  0.07111231  0.99903182     1.18400
C1400       C  0.90075490  0.07586881  0.43393940     0.97900
C1401       C  0.57472083  0.07904445  0.41297149     0.98600
N1402       N  0.96251042  0.45735767  0.07476260    -0.06600
N1403       N  0.93578454  0.45219523  0.09945593    -0.62900
N1404       N  0.54416075  0.43500337  0.03734127    -0.05400
N1405       N  0.57375260  0.41347633  0.03717426    -0.63600
N1406       N  0.54554044  0.46034325  0.06431806    -0.06100
N1407       N  0.57586446  0.45606957  0.08372923    -0.63200
N1408       N  0.96143750  0.43182893  0.04777365    -0.05000
N1409       N  0.93415477  0.40875669  0.05279297    -0.63900
Mn1410     Mn  0.50256645  0.00196179  0.07152392     1.10700
C1411       C  0.91859662  0.42183421  0.08486244     0.99100
C1412       C  0.59288834  0.42590604  0.06720210     0.99200
N1413       N  0.53272069  0.45748109  0.42853313    -0.06100
N1414       N  0.55761831  0.45154640  0.40264744    -0.61500
N1415       N  0.95372021  0.43224792  0.46191566    -0.05400
N1416       N  0.92839200  0.40693550  0.45737869    -0.58200
N1417       N  0.95224943  0.45768599  0.43476809    -0.06700
N1418       N  0.92623586  0.45061535  0.41055920    -0.61000
N1419       N  0.53417456  0.43067012  0.45424358    -0.05700
N1420       N  0.55973129  0.40518884  0.44656673    -0.58200
Mn1421     Mn  0.99117153  0.50055809  0.42907318     1.20200
Mn1422     Mn  0.99824069  0.43063008  0.50076595     1.10100
Cl1423     Cl  0.49705352  0.00098493  0.00010991    -0.86200
C1424       C  0.57412523  0.41912127  0.41463158     0.96100
C1425       C  0.91175795  0.41939952  0.42560046     0.95900
C1426       C  0.83785463  0.35236345  0.40399662     0.86300
C1427       C  0.86771454  0.32544546  0.38678327    -0.54000
C1428       C  0.89580988  0.34281464  0.36663765     0.09200
C1429       C  0.88943697  0.38669371  0.36497349     0.20100
C1430       C  0.85935593  0.38113402  0.42637137    -0.54700
C1431       C  0.88615570  0.39743830  0.40653249     0.09300
C1432       C  0.82334364  0.37730716  0.37019101    -0.54200
C1433       C  0.85031816  0.39636806  0.35066752     0.09900
H1434       H  0.86792440  0.29522089  0.39309067     0.14400
H1435       H  0.91055719  0.40228672  0.34888160     0.00100
H1436       H  0.85438547  0.38848897  0.45596532     0.14700
H1437       H  0.79447511  0.38312067  0.36495177     0.14500
C1438       C  0.83734654  0.35944158  0.10017232     0.86300
C1439       C  0.86241363  0.38697606  0.07947372    -0.54000
C1440       C  0.88825195  0.40277267  0.10183182     0.09200
C1441       C  0.88683978  0.39123435  0.14347652     0.20100
C1442       C  0.86447185  0.33123239  0.11960530    -0.54700
C1443       C  0.89148442  0.34747210  0.14180026     0.09300
C1444       C  0.82133325  0.38495697  0.13269861    -0.54200
C1445       C  0.84728253  0.40140250  0.15506508     0.09900
H1446       H  0.86096021  0.39282662  0.04920418     0.14400
H1447       H  0.90593363  0.40587496  0.16249735     0.00100
H1448       H  0.86416898  0.30107128  0.11310050     0.14700
H1449       H  0.79250312  0.39255590  0.13573927     0.14500
N1450       N  0.79888068  0.33609321  0.00195498    -0.36800
N1451       N  0.74360621  0.33531162  0.06054347    -0.57400
N1452       N  0.68693307  0.33345293  0.99973489    -0.36800
N1453       N  0.74332672  0.33507976  0.44141505    -0.57400
C1454       C  0.82027903  0.33245558  0.03351772     0.26700
C1455       C  0.81997623  0.32784042  0.47095294     0.26700
C1456       C  0.66597342  0.33843452  0.03168936     0.26700
C1457       C  0.66578274  0.34190038  0.46842125     0.26700
C1458       C  0.77303035  0.33482232  0.08383367     0.35400
C1459       C  0.71384221  0.33093647  0.08285605     0.35400
C1460       C  0.77339009  0.32844700  0.41972434     0.35400
C1461       C  0.71384971  0.32965768  0.41906169     0.35400
C1462       C  0.85529366  0.32102594  0.02235197    -0.22100
C1463       C  0.85506729  0.31791531  0.48322498    -0.22100
C1464       C  0.63072017  0.34711035  0.02035323    -0.22100
C1465       C  0.63091608  0.35107597  0.48159767    -0.22100
C1466       C  0.76202034  0.32808858  0.12088777    -0.23200
C1467       C  0.72447656  0.32618820  0.12037647    -0.23200
C1468       C  0.76324156  0.31750264  0.38362374    -0.23200
C1469       C  0.72549787  0.31775171  0.38329318    -0.23200
C1470       C  0.80949398  0.34132644  0.07191068    -0.18500
C1471       C  0.80980257  0.33375160  0.43177236    -0.18500
C1472       C  0.67732623  0.34100093  0.42880545    -0.18500
C1473       C  0.67723547  0.33626458  0.07092042    -0.18500
H1474       H  0.87879570  0.31593820  0.04046136     0.14400
H1475       H  0.87853119  0.31048216  0.46565328     0.14400
H1476       H  0.60656668  0.34889534  0.03787755     0.14400
H1477       H  0.60710145  0.35936801  0.46628645     0.14400
H1478       H  0.77917645  0.32480751  0.14573866     0.12700
H1479       H  0.70693057  0.32235410  0.14491482     0.12700
H1480       H  0.78119925  0.31012841  0.36009302     0.12700
H1481       H  0.70850422  0.31127132  0.35907108     0.12700
H1482       H  0.77237417  0.34727356  0.00126854     0.25900
H1483       H  0.71422653  0.32477894  0.99981054     0.25900
C1484       C  0.90137979  0.15677461  0.36556743     0.86300
C1485       C  0.91470726  0.12996292  0.39640147    -0.54000
C1486       C  0.88917512  0.10520802  0.40907016     0.09200
C1487       C  0.85155215  0.10981848  0.39229407     0.20100
C1488       C  0.88431638  0.13018777  0.33560560    -0.54700
C1489       C  0.85895595  0.10441873  0.34917816     0.09300
C1490       C  0.86831191  0.17671695  0.38656664    -0.54200
C1491       C  0.84318669  0.15201403  0.40187001     0.09900
H1492       H  0.94205075  0.13060756  0.40848444     0.14400
H1493       H  0.83058602  0.09088450  0.40444211     0.00100
H1494       H  0.89445407  0.12945020  0.30657507     0.14700
H1495       H  0.86771948  0.20676047  0.39362404     0.14500
N1496       N  0.84679469  0.05904995  0.25499587    -0.36800
N1497       N  0.83988913  0.50237257  0.19501320    -0.57400
N1498       N  0.83804779  0.44183908  0.25384278    -0.36800
N1499       N  0.84312460  0.50017400  0.31395365    -0.57400
C1500       C  0.83830595  0.08080617  0.22425035     0.26700
C1501       C  0.83838451  0.08010978  0.28622994     0.26700
C1502       C  0.83693762  0.41969084  0.22239358     0.26700
C1503       C  0.83891053  0.41831058  0.28439779     0.26700
C1504       C  0.84726830  0.03323357  0.17286113     0.35400
C1505       C  0.84205212  0.47092695  0.17248202     0.35400
C1506       C  0.84677248  0.03120138  0.33703380     0.35400
C1507       C  0.84417062  0.46802579  0.33589338     0.35400
C1508       C  0.82353702  0.11542105  0.23614594    -0.22100
C1509       C  0.82366026  0.11501710  0.27513466    -0.22100
C1510       C  0.83603053  0.38175892  0.23320290    -0.22100
C1511       C  0.83734677  0.38087327  0.27209591    -0.22100
C1512       C  0.85377843  0.02063171  0.13612283    -0.23200
C1513       C  0.84933370  0.48213290  0.13572250    -0.23200
C1514       C  0.84901781  0.01809328  0.37414319    -0.23200
C1515       C  0.84708225  0.47893718  0.37340678    -0.23200
C1516       C  0.84709386  0.07207014  0.18585948    -0.18500
C1517       C  0.84687059  0.07060247  0.32444316    -0.18500
C1518       C  0.84294343  0.42896030  0.32301213    -0.18500
C1519       C  0.83942796  0.43198403  0.18410280    -0.18500
H1520       H  0.81452881  0.13895542  0.21843527     0.14400
H1521       H  0.81470174  0.13816757  0.29339578     0.14400
H1522       H  0.83539784  0.35705180  0.21493675     0.14400
H1523       H  0.83783970  0.35531114  0.28925834     0.14400
H1524       H  0.86092759  0.03593984  0.11115575     0.12700
H1525       H  0.85129735  0.46471228  0.11065344     0.12700
H1526       H  0.85019395  0.03399821  0.39994150     0.12700
H1527       H  0.84664296  0.46085176  0.39815875     0.12700
H1528       H  0.86084031  0.03301361  0.25463477     0.25900
H1529       H  0.83964352  0.47113146  0.25427265     0.25900
C1530       C  0.89974439  0.15949780  0.14606310     0.86300
C1531       C  0.86715377  0.17694151  0.12258531    -0.54000
C1532       C  0.84453836  0.15040834  0.10649484     0.09200
C1533       C  0.85526516  0.10899839  0.11720050     0.20100
C1534       C  0.88218476  0.13289777  0.17552614    -0.54700
C1535       C  0.85920577  0.10558027  0.16105212     0.09300
C1536       C  0.91721974  0.13295124  0.11712580    -0.54200
C1537       C  0.89487078  0.10600042  0.10363871     0.09900
H1538       H  0.86447503  0.20698083  0.11585215     0.14400
H1539       H  0.83607631  0.08896732  0.10398535     0.00100
H1540       H  0.89038802  0.13352874  0.20512449     0.14700
H1541       H  0.94536554  0.13517237  0.10713874     0.14500
N1542       N  0.75019914  0.15797576  0.44562991    -0.36800
N1543       N  0.69274550  0.16091401  0.00425586    -0.57400
N1544       N  0.74900872  0.16459801  0.06426690    -0.36800
N1545       N  0.80678781  0.16225699  0.00481407    -0.57400
C1546       C  0.72015102  0.16247609  0.42344532     0.26700
C1547       C  0.77973109  0.16582151  0.42368646     0.26700
C1548       C  0.71862428  0.15944445  0.08614818     0.26700
C1549       C  0.77888599  0.15837282  0.08663300     0.26700
C1550       C  0.67114848  0.16079999  0.47270878     0.35400
C1551       C  0.67034312  0.16474058  0.03518410     0.35400
C1552       C  0.82888722  0.16135496  0.47333429     0.35400
C1553       C  0.82861912  0.16132289  0.03627867     0.35400
C1554       C  0.73066529  0.17447538  0.38756946    -0.22100
C1555       C  0.76826084  0.17598879  0.38752773    -0.22100
C1556       C  0.72943165  0.15100617  0.12297635    -0.22100
C1557       C  0.76713415  0.15039547  0.12331472    -0.22100
C1558       C  0.63482263  0.16602703  0.48386339    -0.23200
C1559       C  0.63432357  0.16825606  0.02297163    -0.23200
C1560       C  0.86512713  0.16066242  0.48509453    -0.23200
C1561       C  0.86497648  0.16066576  0.02443172    -0.23200
C1562       C  0.68359094  0.15460596  0.43413133    -0.18500
C1563       C  0.81691714  0.16176743  0.43422616    -0.18500
C1564       C  0.81656003  0.15894020  0.07540373    -0.18500
C1565       C  0.68128521  0.16164811  0.07428716    -0.18500
H1566       H  0.71303248  0.18136311  0.36377196     0.14400
H1567       H  0.78528075  0.18381839  0.36358952     0.14400
H1568       H  0.71199143  0.14541108  0.14721031     0.14400
H1569       H  0.78392189  0.14420870  0.14792106     0.14400
H1570       H  0.61093718  0.16797744  0.46576061     0.12700
H1571       H  0.61000127  0.17188994  0.04036023     0.12700
H1572       H  0.88932792  0.16117369  0.46730114     0.12700
H1573       H  0.88908238  0.16050736  0.04221742     0.12700
H1574       H  0.75063723  0.14725992  0.47311849     0.25900
H1575       H  0.74929664  0.17216617  0.03582474     0.25900
C1576       C  0.64346934  0.39952341  0.33987166     0.86300
C1577       C  0.61795121  0.36759395  0.32376365    -0.54000
C1578       C  0.59972872  0.34677034  0.35129749     0.09200
C1579       C  0.61108162  0.35805802  0.39206339     0.20100
C1580       C  0.61687048  0.42088249  0.36470651    -0.54700
C1581       C  0.60158779  0.40053407  0.39250892     0.09300
C1582       C  0.66987810  0.37940442  0.36771817    -0.54200
C1583       C  0.65387526  0.35723720  0.39568193     0.09900
H1584       H  0.61175794  0.36450937  0.29383421     0.14400
H1585       H  0.59601167  0.34045810  0.41264134     0.00100
H1586       H  0.60843083  0.45011824  0.35899696     0.14700
H1587       H  0.69896533  0.38547673  0.36703630     0.14500
N1588       N  0.94415237  0.25110596  0.35145106    -0.36800
N1589       N  0.99882699  0.31038020  0.34630624    -0.57400
N1590       N  0.55754059  0.24992464  0.34637918    -0.36800
N1591       N  0.00218658  0.19097990  0.34686350    -0.57400
C1592       C  0.92362070  0.28211295  0.34186415     0.26700
C1593       C  0.92478343  0.22030882  0.34118414     0.26700
C1594       C  0.57770903  0.28095952  0.33759581     0.26700
C1595       C  0.57910715  0.21851934  0.33999347     0.26700
C1596       C  0.96837222  0.33237791  0.35526100     0.35400
C1597       C  0.52955197  0.33201448  0.34996134     0.35400
C1598       C  0.97162952  0.16895930  0.34929803     0.35400
C1599       C  0.53269650  0.16765662  0.34944755     0.35400
C1600       C  0.89172857  0.27079757  0.32400885    -0.22100
C1601       C  0.89239702  0.23172962  0.32378550    -0.22100
C1602       C  0.61208160  0.26904723  0.32483045    -0.22100
C1603       C  0.61284767  0.22993254  0.32603400    -0.22100
C1604       C  0.98028815  0.36844699  0.36426584    -0.23200
C1605       C  0.51806590  0.36844116  0.35951941    -0.23200
C1606       C  0.98302623  0.13125772  0.35054444    -0.23200
C1607       C  0.52075098  0.13051124  0.35194430    -0.23200
C1608       C  0.93050066  0.31981537  0.35353635    -0.18500
C1609       C  0.93369259  0.18238386  0.35089903    -0.18500
C1610       C  0.57063416  0.17991999  0.34900272    -0.18500
C1611       C  0.56759288  0.31969955  0.34426699    -0.18500
H1612       H  0.86958616  0.28891286  0.31367889     0.14400
H1613       H  0.87102205  0.21368637  0.31306147     0.14400
H1614       H  0.63463824  0.28672616  0.31613290     0.14400
H1615       H  0.63600978  0.21184802  0.31818811     0.14400
H1616       H  0.96422616  0.39293192  0.37262269     0.12700
H1617       H  0.53479260  0.39314433  0.36118102     0.12700
H1618       H  0.96607886  0.10631140  0.35022998     0.12700
H1619       H  0.53630826  0.10461627  0.35350488     0.12700
H1620       H  0.96795353  0.25083458  0.36776041     0.25900
H1621       H  0.53178678  0.25040966  0.35911468     0.25900
C1622       C  0.65719993  0.13851282  0.40321790     0.86300
C1623       C  0.63016677  0.16816290  0.38573809    -0.54000
C1624       C  0.60381177  0.15421982  0.36136692     0.09200
C1625       C  0.60907953  0.11027096  0.35594220     0.20100
C1626       C  0.63261165  0.10854092  0.42044547    -0.54700
C1627       C  0.60701816  0.09497203  0.39653327     0.09300
C1628       C  0.67446874  0.11618192  0.36908179    -0.54200
C1629       C  0.64947142  0.10072901  0.34477127     0.09900
H1630       H  0.63009331  0.19758935  0.39503670     0.14400
H1631       H  0.59017677  0.09701280  0.33562888     0.00100
H1632       H  0.63363949  0.09991205  0.45006823     0.14700
H1633       H  0.70346634  0.10898374  0.36681640     0.14500
N1634       N  0.65805361  0.44161466  0.24457301    -0.36800
N1635       N  0.66438059  0.00006154  0.30373499    -0.57400
N1636       N  0.65449619  0.05923852  0.24682360    -0.36800
N1637       N  0.65478545  0.00094310  0.18657704    -0.57400
C1638       C  0.66640441  0.41926816  0.27463683     0.26700
C1639       C  0.66274207  0.42005537  0.21316721     0.26700
C1640       C  0.66175752  0.08106018  0.27755872     0.26700
C1641       C  0.65873682  0.08134104  0.21568953     0.26700
C1642       C  0.66747721  0.46820334  0.32561460     0.35400
C1643       C  0.66373663  0.03085352  0.32735190     0.35400
C1644       C  0.65022650  0.46972096  0.16403992     0.35400
C1645       C  0.64858872  0.03266314  0.16487853     0.35400
C1646       C  0.67734572  0.38344707  0.26240319    -0.22100
C1647       C  0.67516671  0.38393183  0.22347417    -0.22100
C1648       C  0.67097104  0.11725463  0.26594242    -0.22100
C1649       C  0.66975877  0.11727231  0.22695556    -0.22100
C1650       C  0.67162938  0.47942561  0.36325131    -0.27000
C1651       C  0.66822476  0.01859653  0.36439823    -0.23200
C1652       C  0.64316099  0.48213899  0.12766720    -0.23200
C1653       C  0.64160625  0.02098919  0.12822079    -0.23200
C1654       C  0.66149473  0.42944107  0.31287588    -0.18500
C1655       C  0.65208222  0.43049472  0.17600411    -0.18500
C1656       C  0.64920660  0.07159529  0.17779950    -0.18500
C1657       C  0.65901785  0.06983883  0.31594602    -0.18500
H1658       H  0.68536946  0.35934544  0.27984582     0.14400
H1659       H  0.68094633  0.36007167  0.20485165     0.14400
H1660       H  0.67801573  0.14110915  0.28374184     0.14400
H1661       H  0.67531437  0.14145593  0.20891484     0.14400
H1662       H  0.67504840  0.46110934  0.38775140     0.12700
H1663       H  0.66921845  0.03598775  0.38967870     0.12700
H1664       H  0.64127412  0.46600168  0.10217764     0.12700
H1665       H  0.63709342  0.03747007  0.10321137     0.12700
H1666       H  0.64624810  0.46861646  0.24582228     0.25900
H1667       H  0.64416630  0.03197702  0.24722159     0.25900
C1668       C  0.59465535  0.16058058  0.14080906     0.86300
C1669       C  0.61049494  0.13117478  0.16875700    -0.54000
C1670       C  0.63474858  0.10469047  0.15355007     0.09200
C1671       C  0.64088570  0.11096485  0.11031458     0.20100
C1672       C  0.62864416  0.17861283  0.12063092    -0.54700
C1673       C  0.65231871  0.15245882  0.10388943     0.09300
C1674       C  0.57868563  0.13712118  0.10903618    -0.54200
C1675       C  0.60220813  0.11101317  0.09389505     0.09900
H1676       H  0.60130768  0.13025211  0.19811559     0.14400
H1677       H  0.66063881  0.09098261  0.09660347     0.00100
H1678       H  0.63151549  0.20892851  0.11605597     0.14700
H1679       H  0.55031822  0.13980506  0.09976434     0.14500
C1680       C  0.59292053  0.34731577  0.13819910     0.86300
C1681       C  0.57957964  0.37307328  0.10654175    -0.54000
C1682       C  0.60514250  0.39703606  0.09277228     0.09200
C1683       C  0.64325368  0.39180489  0.10903813     0.20100
C1684       C  0.62516157  0.32574346  0.11774334    -0.54700
C1685       C  0.65077600  0.34903192  0.10162538     0.09300
C1686       C  0.61091016  0.37415908  0.16691183    -0.54200
C1687       C  0.63694791  0.39817590  0.15208621     0.09900
H1688       H  0.55224542  0.37213905  0.09448582     0.14400
H1689       H  0.66446762  0.40989955  0.09596309     0.00100
H1690       H  0.62521910  0.29541679  0.11201794     0.14700
H1691       H  0.60167533  0.37580512  0.19623727     0.14500
N1692       N  0.55137557  0.25496265  0.15710915    -0.36800
N1693       N  0.99675953  0.19703075  0.16499466    -0.57400
N1694       N  0.93857193  0.25533547  0.15905072    -0.36800
N1695       N  0.99306606  0.31414162  0.15925696    -0.57400
C1696       C  0.57261897  0.22461015  0.16639374     0.26700
C1697       C  0.57062946  0.28594124  0.16613860     0.26700
C1698       C  0.91903397  0.22462527  0.16927341     0.26700
C1699       C  0.91734548  0.28631745  0.16682000     0.26700
C1700       C  0.52733382  0.17414273  0.16418854     0.35400
C1701       C  0.96709383  0.17414964  0.16683084     0.35400
C1702       C  0.52333457  0.33625771  0.15565459     0.35400
C1703       C  0.96252910  0.33689001  0.15441969     0.35400
C1704       C  0.60511106  0.23616443  0.18253273    -0.22100
C1705       C  0.60377568  0.27520597  0.18260734    -0.22100
C1706       C  0.88558697  0.23599767  0.18456495    -0.22100
C1707       C  0.88456102  0.27504693  0.18322532    -0.22100
C1708       C  0.51704615  0.13658540  0.16803217    -0.23200
C1709       C  0.97926413  0.13663002  0.17034931    -0.23200
C1710       C  0.51173966  0.37365905  0.15173524    -0.23200
C1711       C  0.97420643  0.37386127  0.14918117    -0.23200
C1712       C  0.56417809  0.18692320  0.15819296    -0.18500
C1713       C  0.56118354  0.32307101  0.15492925    -0.18500
C1714       C  0.92494513  0.32403703  0.15563516    -0.18500
C1715       C  0.92939140  0.18658143  0.16225179    -0.18500
H1716       H  0.62755224  0.21826712  0.19254775     0.14400
H1717       H  0.62528083  0.29367398  0.19227451     0.14400
H1718       H  0.86398963  0.21791512  0.19494581     0.14400
H1719       H  0.86181145  0.29314083  0.19219890     0.14400
H1720       H  0.53481672  0.11162573  0.16897187     0.12700
H1721       H  0.96262173  0.11160992  0.17334653     0.12700
H1722       H  0.52841871  0.39878630  0.15066624     0.12700
H1723       H  0.95890430  0.39946329  0.14471851     0.12700
H1724       H  0.52698439  0.25456071  0.14183489     0.25900
H1725       H  0.96325885  0.25484062  0.14412910     0.25900
N1726       N  0.54308216  0.04560909  0.56454402    -0.06400
N1727       N  0.57157695  0.05231962  0.58596343    -0.58500
N1728       N  0.95695975  0.06914332  0.54465376    -0.06000
N1729       N  0.92738685  0.09054593  0.54776164    -0.60600
N1730       N  0.95884393  0.04422963  0.57211491    -0.05600
N1731       N  0.93074053  0.04879736  0.59530334    -0.58400
N1732       N  0.54092285  0.07047463  0.53700658    -0.05300
N1733       N  0.56782172  0.09467869  0.53891449    -0.61000
C1734       C  0.58702657  0.08286383  0.56952534     0.95800
C1735       C  0.91114407  0.07781835  0.57946913     0.95600
N1736       N  0.94831228  0.04195190  0.93578241    -0.06500
N1737       N  0.91768390  0.04596828  0.91685285    -0.59000
N1738       N  0.53237342  0.07038298  0.95133947    -0.04700
N1739       N  0.55977648  0.09309372  0.94516690    -0.60300
N1740       N  0.53092417  0.04432949  0.92492626    -0.06600
N1741       N  0.55722656  0.04849617  0.89961219    -0.59300
N1742       N  0.94969453  0.06694841  0.96294802    -0.04300
N1743       N  0.91988032  0.08803897  0.96395460    -0.60400
Mn1744     Mn  0.49532705  0.07111236  0.49903182     1.18400
C1745       C  0.90075492  0.07586877  0.93393938     0.97900
C1746       C  0.57472087  0.07904440  0.91297149     0.98600
N1747       N  0.96251043  0.45735766  0.57476259    -0.06600
N1748       N  0.93578456  0.45219519  0.59945592    -0.62900
N1749       N  0.54416077  0.43500335  0.53734127    -0.05400
N1750       N  0.57375263  0.41347633  0.53717426    -0.63600
N1751       N  0.54554045  0.46034325  0.56431805    -0.06100
N1752       N  0.57586446  0.45606957  0.58372922    -0.63200
N1753       N  0.96143753  0.43182889  0.54777365    -0.05000
N1754       N  0.93415481  0.40875665  0.55279296    -0.63900
Mn1755     Mn  0.50256639  0.00196181  0.57152391     1.10700
C1756       C  0.91859665  0.42183417  0.58486244     0.99100
C1757       C  0.59288837  0.42590604  0.56720210     0.99200
N1758       N  0.53272073  0.45748121  0.92853317    -0.06100
N1759       N  0.55761829  0.45154643  0.90264743    -0.61500
N1760       N  0.95372024  0.43224799  0.96191568    -0.05400
N1761       N  0.92839200  0.40693559  0.95737872    -0.58200
N1762       N  0.95224945  0.45768606  0.93476813    -0.06700
N1763       N  0.92623584  0.45061546  0.91055926    -0.61000
N1764       N  0.53417459  0.43067030  0.95424366    -0.05700
N1765       N  0.55973122  0.40518891  0.94656678    -0.58200
Mn1766     Mn  0.99117157  0.50055814  0.92907318     1.20200
Mn1767     Mn  0.99824069  0.43063016  0.00076596     1.10100
Cl1768     Cl  0.49705352  0.00098502  0.50010990    -0.86200
C1769       C  0.57412515  0.41912128  0.91463159     0.96100
C1770       C  0.91175793  0.41939961  0.92560052     0.95900
C1771       C  0.83785466  0.35236346  0.90399662     0.86300
C1772       C  0.86771455  0.32544546  0.88678327    -0.54000
C1773       C  0.89580990  0.34281464  0.86663769     0.09200
C1774       C  0.88943698  0.38669371  0.86497351     0.20100
C1775       C  0.85935598  0.38113401  0.92637136    -0.54700
C1776       C  0.88615573  0.39743833  0.90653250     0.09300
C1777       C  0.82334367  0.37730715  0.87019099    -0.54200
C1778       C  0.85031819  0.39636806  0.85066751     0.09900
H1779       H  0.86792441  0.29522089  0.89309069     0.14400
H1780       H  0.91055719  0.40228680  0.84888160     0.00100
H1781       H  0.85438551  0.38848893  0.95596531     0.14700
H1782       H  0.79447515  0.38312064  0.86495180     0.14500
C1783       C  0.83734655  0.35944156  0.60017231     0.86300
C1784       C  0.86241363  0.38697605  0.57947370    -0.54000
C1785       C  0.88825197  0.40277263  0.60183181     0.09200
C1786       C  0.88683981  0.39123433  0.64347652     0.20100
C1787       C  0.86447187  0.33123233  0.61960529    -0.54700
C1788       C  0.89148443  0.34747208  0.64180026     0.09300
C1789       C  0.82133327  0.38495694  0.63269863    -0.54200
C1790       C  0.84728255  0.40140249  0.65506510     0.09900
H1791       H  0.86096019  0.39282660  0.54920418     0.14400
H1792       H  0.90593368  0.40587491  0.66249735     0.00100
H1793       H  0.86416899  0.30107131  0.61310054     0.14700
H1794       H  0.79250313  0.39255580  0.63573930     0.14500
N1795       N  0.79888069  0.33609317  0.50195498    -0.36800
N1796       N  0.74360623  0.33531181  0.56054347    -0.57400
N1797       N  0.68693307  0.33345296  0.49973490    -0.36800
N1798       N  0.74332674  0.33507995  0.94141501    -0.57400
C1799       C  0.82027904  0.33245554  0.53351771     0.26700
C1800       C  0.81997622  0.32784044  0.97095294     0.26700
C1801       C  0.66597344  0.33843464  0.53168936     0.26700
C1802       C  0.66578276  0.34190047  0.96842126     0.26700
C1803       C  0.77303038  0.33482232  0.58383366     0.35400
C1804       C  0.71384223  0.33093671  0.58285605     0.35400
C1805       C  0.77339009  0.32844717  0.91972432     0.35400
C1806       C  0.71384971  0.32965773  0.91906170     0.35400
C1807       C  0.85529365  0.32102591  0.52235195    -0.22100
C1808       C  0.85506728  0.31791528  0.98322499    -0.22100
C1809       C  0.63072017  0.34711037  0.52035323    -0.22100
C1810       C  0.63091609  0.35107601  0.98159766    -0.22100
C1811       C  0.76202037  0.32808855  0.62088775    -0.23200
C1812       C  0.72447657  0.32618836  0.62037647    -0.23200
C1813       C  0.76324156  0.31750266  0.88362379    -0.23200
C1814       C  0.72549788  0.31775166  0.88329321    -0.23200
C1815       C  0.80949401  0.34132639  0.57191068    -0.18500
C1816       C  0.80980257  0.33375171  0.93177235    -0.18500
C1817       C  0.67732625  0.34100104  0.92880545    -0.18500
C1818       C  0.67723549  0.33626474  0.57092042    -0.18500
H1819       H  0.87879574  0.31593811  0.54046136     0.14400
H1820       H  0.87853118  0.31048213  0.96565329     0.14400
H1821       H  0.60656667  0.34889532  0.53787756     0.14400
H1822       H  0.60710146  0.35936805  0.96628643     0.14400
H1823       H  0.77917648  0.32480735  0.64573862     0.12700
H1824       H  0.70693057  0.32235425  0.64491480     0.12700
H1825       H  0.78119931  0.31012842  0.86009303     0.12700
H1826       H  0.70850424  0.31127126  0.85907111     0.12700
H1827       H  0.77237416  0.34727347  0.50126854     0.25900
H1828       H  0.71422653  0.32477900  0.49981057     0.25900
C1829       C  0.90137979  0.15677460  0.86556743     0.86300
C1830       C  0.91470726  0.12996290  0.89640146    -0.54000
C1831       C  0.88917513  0.10520801  0.90907016     0.09200
C1832       C  0.85155216  0.10981850  0.89229408     0.20100
C1833       C  0.88431639  0.13018777  0.83560561    -0.54700
C1834       C  0.85895597  0.10441872  0.84917818     0.09300
C1835       C  0.86831193  0.17671703  0.88656664    -0.54200
C1836       C  0.84318669  0.15201409  0.90187001     0.09900
H1837       H  0.94205077  0.13060753  0.90848440     0.14400
H1838       H  0.83058603  0.09088453  0.90444212     0.00100
H1839       H  0.89445409  0.12945022  0.80657506     0.14700
H1840       H  0.86771951  0.20676047  0.89362400     0.14500
N1841       N  0.84679470  0.05905007  0.75499587    -0.36800
N1842       N  0.83988900  0.50237261  0.69501318    -0.57400
N1843       N  0.83804765  0.44183927  0.75384283    -0.36800
N1844       N  0.84312462  0.50017402  0.81395365    -0.57400
C1845       C  0.83830596  0.08080619  0.72425035     0.26700
C1846       C  0.83838453  0.08010979  0.78622995     0.26700
C1847       C  0.83693758  0.41969092  0.72239360     0.26700
C1848       C  0.83891050  0.41831063  0.78439781     0.26700
C1849       C  0.84726820  0.03323360  0.67286114     0.35400
C1850       C  0.84205207  0.47092695  0.67248203     0.35400
C1851       C  0.84677244  0.03120139  0.83703381     0.35400
C1852       C  0.84417065  0.46802581  0.83589339     0.35400
C1853       C  0.82353702  0.11542105  0.73614593    -0.22100
C1854       C  0.82366024  0.11501709  0.77513467    -0.22100
C1855       C  0.83603056  0.38175897  0.73320289    -0.22100
C1856       C  0.83734680  0.38087331  0.77209590    -0.22100
C1857       C  0.85377838  0.02063177  0.63612286    -0.23200
C1858       C  0.84933368  0.48213289  0.63572251    -0.23200
C1859       C  0.84901768  0.01809326  0.87414321    -0.23200
C1860       C  0.84708227  0.47893721  0.87340680    -0.23200
C1861       C  0.84709384  0.07207014  0.68585948    -0.18500
C1862       C  0.84687060  0.07060246  0.82444317    -0.18500
C1863       C  0.84294344  0.42896031  0.82301214    -0.18500
C1864       C  0.83942797  0.43198405  0.68410284    -0.18500
H1865       H  0.81452878  0.13895540  0.71843524     0.14400
H1866       H  0.81470167  0.13816751  0.79339579     0.14400
H1867       H  0.83539790  0.35705193  0.71493675     0.14400
H1868       H  0.83783977  0.35531114  0.78925830     0.14400
H1869       H  0.86092765  0.03594000  0.61115583     0.12700
H1870       H  0.85129741  0.46471225  0.61065347     0.12700
H1871       H  0.85019377  0.03399817  0.89994153     0.12700
H1872       H  0.84664299  0.46085186  0.89815875     0.12700
H1873       H  0.86084040  0.03301369  0.75463476     0.25900
H1874       H  0.83964319  0.47113159  0.75427272     0.25900
C1875       C  0.89974437  0.15949780  0.64606309     0.86300
C1876       C  0.86715369  0.17694153  0.62258536    -0.54000
C1877       C  0.84453830  0.15040837  0.60649487     0.09200
C1878       C  0.85526511  0.10899841  0.61720048     0.20100
C1879       C  0.88218479  0.13289774  0.67552613    -0.54700
C1880       C  0.85920578  0.10558025  0.66105211     0.09300
C1881       C  0.91721972  0.13295126  0.61712577    -0.54200
C1882       C  0.89487075  0.10600046  0.60363866     0.09900
H1883       H  0.86447487  0.20698086  0.61585220     0.14400
H1884       H  0.83607626  0.08896741  0.60398529     0.00100
H1885       H  0.89038807  0.13352868  0.70512448     0.14700
H1886       H  0.94536552  0.13517234  0.60713871     0.14500
N1887       N  0.75019915  0.15797576  0.94562990    -0.36800
N1888       N  0.69274550  0.16091392  0.50425585    -0.57400
N1889       N  0.74900871  0.16459795  0.56426688    -0.36800
N1890       N  0.80678782  0.16225695  0.50481404    -0.57400
C1891       C  0.72015103  0.16247614  0.92344531     0.26700
C1892       C  0.77973108  0.16582157  0.92368645     0.26700
C1893       C  0.71862428  0.15944439  0.58614817     0.26700
C1894       C  0.77888598  0.15837283  0.58663299     0.26700
C1895       C  0.67114849  0.16080009  0.97270878     0.35400
C1896       C  0.67034313  0.16474053  0.53518410     0.35400
C1897       C  0.82888718  0.16135502  0.97333429     0.35400
C1898       C  0.82861911  0.16132284  0.53627866     0.35400
C1899       C  0.73066530  0.17447544  0.88756945    -0.22100
C1900       C  0.76826082  0.17598892  0.88752777    -0.22100
C1901       C  0.72943166  0.15100615  0.62297636    -0.22100
C1902       C  0.76713418  0.15039557  0.62331477    -0.22100
C1903       C  0.63482265  0.16602704  0.98386340    -0.23200
C1904       C  0.63432359  0.16825603  0.52297163    -0.23200
C1905       C  0.86512712  0.16066254  0.98509448    -0.23200
C1906       C  0.86497648  0.16066568  0.52443174    -0.23200
C1907       C  0.68359094  0.15460603  0.93413133    -0.18500
C1908       C  0.81691713  0.16176752  0.93422615    -0.18500
C1909       C  0.81656000  0.15894021  0.57540372    -0.18500
C1910       C  0.68128522  0.16164809  0.57428716    -0.18500
H1911       H  0.71303252  0.18136312  0.86377192     0.14400
H1912       H  0.78528076  0.18381868  0.86358955     0.14400
H1913       H  0.71199147  0.14541102  0.64721029     0.14400
H1914       H  0.78392189  0.14420891  0.64792105     0.14400
H1915       H  0.61093717  0.16797735  0.96576057     0.12700
H1916       H  0.61000129  0.17188993  0.54036023     0.12700
H1917       H  0.88932782  0.16117385  0.96730109     0.12700
H1918       H  0.88908235  0.16050732  0.54221746     0.12700
H1919       H  0.75063724  0.14725986  0.97311845     0.25900
H1920       H  0.74929663  0.17216607  0.53582470     0.25900
C1921       C  0.64346934  0.39952344  0.83987169     0.86300
C1922       C  0.61795119  0.36759402  0.82376365    -0.54000
C1923       C  0.59972874  0.34677037  0.85129750     0.09200
C1924       C  0.61108162  0.35805804  0.89206337     0.20100
C1925       C  0.61687049  0.42088250  0.86470656    -0.54700
C1926       C  0.60158775  0.40053406  0.89250894     0.09300
C1927       C  0.66987810  0.37940440  0.86771817    -0.54200
C1928       C  0.65387525  0.35723720  0.89568192     0.09900
H1929       H  0.61175793  0.36450952  0.79383421     0.14400
H1930       H  0.59601160  0.34045809  0.91264133     0.00100
H1931       H  0.60843085  0.45011825  0.85899702     0.14700
H1932       H  0.69896531  0.38547672  0.86703635     0.14500
N1933       N  0.94415224  0.25110591  0.85145108    -0.36800
N1934       N  0.99882702  0.31038027  0.84630624    -0.57400
N1935       N  0.55754059  0.24992465  0.84637918    -0.36800
N1936       N  0.00218659  0.19097986  0.84686349    -0.57400
C1937       C  0.92362066  0.28211291  0.84186428     0.26700
C1938       C  0.92478342  0.22030877  0.84118412     0.26700
C1939       C  0.57770905  0.28095955  0.83759584     0.26700
C1940       C  0.57910714  0.21851935  0.83999346     0.26700
C1941       C  0.96837221  0.33237794  0.85526104     0.35400
C1942       C  0.52955201  0.33201459  0.84996134     0.35400
C1943       C  0.97162954  0.16895925  0.84929802     0.35400
C1944       C  0.53269650  0.16765659  0.84944755     0.35400
C1945       C  0.89172856  0.27079754  0.82400889    -0.22100
C1946       C  0.89239702  0.23172958  0.82378546    -0.22100
C1947       C  0.61208162  0.26904721  0.82483045    -0.22100
C1948       C  0.61284766  0.22993252  0.82603399    -0.22100
C1949       C  0.98028806  0.36844706  0.86426586    -0.23200
C1950       C  0.51806589  0.36844129  0.85951939    -0.23200
C1951       C  0.98302625  0.13125767  0.85054443    -0.23200
C1952       C  0.52075096  0.13051122  0.85194429    -0.23200
C1953       C  0.93050067  0.31981532  0.85353649    -0.18500
C1954       C  0.93369260  0.18238381  0.85089901    -0.18500
C1955       C  0.57063413  0.17991998  0.84900272    -0.18500
C1956       C  0.56759292  0.31969959  0.84426705    -0.18500
H1957       H  0.86958619  0.28891285  0.81367889     0.14400
H1958       H  0.87102206  0.21368634  0.81306139     0.14400
H1959       H  0.63463829  0.28672611  0.81613292     0.14400
H1960       H  0.63600975  0.21184797  0.81818810     0.14400
H1961       H  0.96422603  0.39293186  0.87262275     0.12700
H1962       H  0.53479255  0.39314449  0.86118099     0.12700
H1963       H  0.96607889  0.10631135  0.85022998     0.12700
H1964       H  0.53630828  0.10461618  0.85350488     0.12700
H1965       H  0.96795345  0.25083451  0.86776050     0.25900
H1966       H  0.53178678  0.25040966  0.85911468     0.25900
C1967       C  0.65719993  0.13851290  0.90321789     0.86300
C1968       C  0.63016675  0.16816291  0.88573807    -0.54000
C1969       C  0.60381175  0.15421983  0.86136693     0.09200
C1970       C  0.60907955  0.11027097  0.85594220     0.20100
C1971       C  0.63261169  0.10854095  0.92044545    -0.54700
C1972       C  0.60701820  0.09497201  0.89653326     0.09300
C1973       C  0.67446875  0.11618204  0.86908176    -0.54200
C1974       C  0.64947145  0.10072906  0.84477126     0.09900
H1975       H  0.63009326  0.19758946  0.89503667     0.14400
H1976       H  0.59017681  0.09701276  0.83562889     0.00100
H1977       H  0.63363957  0.09991206  0.95006820     0.14700
H1978       H  0.70346635  0.10898392  0.86681639     0.14500
N1979       N  0.65805370  0.44161452  0.74457301    -0.36800
N1980       N  0.66438062  0.00006158  0.80373498    -0.57400
N1981       N  0.65449622  0.05923847  0.74682360    -0.36800
N1982       N  0.65478535  0.00094310  0.68657704    -0.57400
C1983       C  0.66640445  0.41926811  0.77463685     0.26700
C1984       C  0.66274211  0.42005533  0.71316721     0.26700
C1985       C  0.66175754  0.08106017  0.77755870     0.26700
C1986       C  0.65873678  0.08134100  0.71568952     0.26700
C1987       C  0.66747724  0.46820335  0.82561460     0.35400
C1988       C  0.66373665  0.03085357  0.82735189     0.35400
C1989       C  0.65022653  0.46972100  0.66403994     0.35400
C1990       C  0.64858863  0.03266311  0.66487852     0.35400
C1991       C  0.67734574  0.38344701  0.76240319    -0.22100
C1992       C  0.67516673  0.38393178  0.72347417    -0.22100
C1993       C  0.67097102  0.11725460  0.76594239    -0.22100
C1994       C  0.66975866  0.11727229  0.72695554    -0.22100
C1995       C  0.67162938  0.47942563  0.86325131    -0.27000
C1996       C  0.66822474  0.01859657  0.86439820    -0.23200
C1997       C  0.64316102  0.48213904  0.62766722    -0.23200
C1998       C  0.64160622  0.02098917  0.62822077    -0.23200
C1999       C  0.66149476  0.42944106  0.81287589    -0.18500
C2000       C  0.65208224  0.43049473  0.67600412    -0.18500
C2001       C  0.64920657  0.07159525  0.67779948    -0.18500
C2002       C  0.65901790  0.06983885  0.81594602    -0.18500
H2003       H  0.68536948  0.35934538  0.77984582     0.14400
H2004       H  0.68094635  0.36007162  0.70485164     0.14400
H2005       H  0.67801577  0.14110912  0.78374180     0.14400
H2006       H  0.67531419  0.14145590  0.70891482     0.14400
H2007       H  0.67504835  0.46110940  0.88775144     0.12700
H2008       H  0.66921849  0.03598787  0.88967868     0.12700
H2009       H  0.64127415  0.46600168  0.60217764     0.12700
H2010       H  0.63709348  0.03747004  0.60321133     0.12700
H2011       H  0.64624818  0.46861639  0.74582227     0.25900
H2012       H  0.64416636  0.03197695  0.74722160     0.25900
C2013       C  0.59465535  0.16058063  0.64080909     0.86300
C2014       C  0.61049495  0.13117478  0.66875698    -0.54000
C2015       C  0.63474858  0.10469046  0.65355005     0.09200
C2016       C  0.64088569  0.11096489  0.61031458     0.20100
C2017       C  0.62864411  0.17861286  0.62063090    -0.54700
C2018       C  0.65231869  0.15245887  0.60388944     0.09300
C2019       C  0.57868564  0.13712128  0.60903617    -0.54200
C2020       C  0.60220812  0.11101324  0.59389506     0.09900
H2021       H  0.60130768  0.13025207  0.69811557     0.14400
H2022       H  0.66063878  0.09098264  0.59660346     0.00100
H2023       H  0.63151538  0.20892862  0.61605584     0.14700
H2024       H  0.55031823  0.13980524  0.59976431     0.14500
C2025       C  0.59292055  0.34731576  0.63819910     0.86300
C2026       C  0.57957968  0.37307326  0.60654174    -0.54000
C2027       C  0.60514252  0.39703606  0.59277229     0.09200
C2028       C  0.64325368  0.39180490  0.60903817     0.20100
C2029       C  0.62516160  0.32574344  0.61774334    -0.54700
C2030       C  0.65077601  0.34903195  0.60162540     0.09300
C2031       C  0.61091017  0.37415907  0.66691186    -0.54200
C2032       C  0.63694789  0.39817591  0.65208623     0.09900
H2033       H  0.55224546  0.37213902  0.59448579     0.14400
H2034       H  0.66446763  0.40989958  0.59596314     0.00100
H2035       H  0.62521913  0.29541678  0.61201791     0.14700
H2036       H  0.60167536  0.37580508  0.69623730     0.14500
N2037       N  0.55137553  0.25496269  0.65710916    -0.36800
N2038       N  0.99675951  0.19703074  0.66499466    -0.57400
N2039       N  0.93857195  0.25533544  0.65905071    -0.36800
N2040       N  0.99306607  0.31414168  0.65925695    -0.57400
C2041       C  0.57261892  0.22461018  0.66639380     0.26700
C2042       C  0.57062942  0.28594127  0.66613860     0.26700
C2043       C  0.91903398  0.22462524  0.66927340     0.26700
C2044       C  0.91734550  0.28631742  0.66681998     0.26700
C2045       C  0.52733379  0.17414272  0.66418856     0.35400
C2046       C  0.96709380  0.17414960  0.66683083     0.35400
C2047       C  0.52333457  0.33625778  0.65565458     0.35400
C2048       C  0.96252911  0.33689007  0.65441968     0.35400
C2049       C  0.60511103  0.23616450  0.68253273    -0.22100
C2050       C  0.60377562  0.27520603  0.68260732    -0.22100
C2051       C  0.88558700  0.23599764  0.68456494    -0.22100
C2052       C  0.88456105  0.27504689  0.68322531    -0.22100
C2053       C  0.51704615  0.13658539  0.66803216    -0.23200
C2054       C  0.97926412  0.13663001  0.67034929    -0.23200
C2055       C  0.51173969  0.37365910  0.65173522    -0.23200
C2056       C  0.97420647  0.37386131  0.64918117    -0.23200
C2057       C  0.56417807  0.18692322  0.65819308    -0.18500
C2058       C  0.56118352  0.32307104  0.65492924    -0.18500
C2059       C  0.92494515  0.32403703  0.65563515    -0.18500
C2060       C  0.92939139  0.18658141  0.66225178    -0.18500
H2061       H  0.62755221  0.21826726  0.69254773     0.14400
H2062       H  0.62528078  0.29367406  0.69227445     0.14400
H2063       H  0.86398965  0.21791504  0.69494581     0.14400
H2064       H  0.86181148  0.29314079  0.69219888     0.14400
H2065       H  0.53481672  0.11162573  0.66897188     0.12700
H2066       H  0.96262171  0.11160990  0.67334651     0.12700
H2067       H  0.52841875  0.39878633  0.65066623     0.12700
H2068       H  0.95890432  0.39946341  0.64471853     0.12700
H2069       H  0.52698432  0.25456074  0.64183488     0.25900
H2070       H  0.96325887  0.25484059  0.64412910     0.25900
N2071       N  0.54308222  0.54560905  0.06454396    -0.06400
N2072       N  0.57157692  0.55231965  0.08596346    -0.58500
N2073       N  0.95695979  0.56914341  0.04465380    -0.06000
N2074       N  0.92738681  0.59054590  0.04776165    -0.60600
N2075       N  0.95884403  0.54422969  0.07211493    -0.05600
N2076       N  0.93074058  0.54879732  0.09530332    -0.58400
N2077       N  0.54092285  0.57047462  0.03700657    -0.05300
N2078       N  0.56782167  0.59467875  0.03891454    -0.61000
C2079       C  0.58702653  0.58286388  0.06952536     0.95800
C2080       C  0.91114403  0.57781826  0.07946912     0.95600
N2081       N  0.94831229  0.54195181  0.43578247    -0.06500
N2082       N  0.91768392  0.54596826  0.41685286    -0.59000
N2083       N  0.53237338  0.57038302  0.45133948    -0.04700
N2084       N  0.55977647  0.59309377  0.44516687    -0.60300
N2085       N  0.53092415  0.54432953  0.42492630    -0.06600
N2086       N  0.55722650  0.54849618  0.39961220    -0.59300
N2087       N  0.94969456  0.56694835  0.46294805    -0.04300
N2088       N  0.91988045  0.58803902  0.46395455    -0.60400
Mn2089     Mn  0.49532708  0.57111236  0.99903183     1.18400
C2090       C  0.90075504  0.57586882  0.43393936     0.97900
C2091       C  0.57472086  0.57904437  0.41297151     0.98600
N2092       N  0.96251045  0.95735764  0.07476263    -0.06600
N2093       N  0.93578448  0.95219526  0.09945589    -0.62900
N2094       N  0.54416073  0.93500345  0.03734123    -0.05400
N2095       N  0.57375259  0.91347643  0.03717419    -0.63600
N2096       N  0.54554040  0.96034331  0.06431805    -0.06100
N2097       N  0.57586442  0.95606961  0.08372921    -0.63200
N2098       N  0.96143755  0.93182885  0.04777371    -0.05000
N2099       N  0.93415474  0.90875670  0.05279296    -0.63900
Mn2100     Mn  0.50256647  0.50196177  0.07152391     1.10700
C2101       C  0.91859655  0.92183426  0.08486242     0.99100
C2102       C  0.59288831  0.92590611  0.06720204     0.99200
N2103       N  0.53272074  0.95748114  0.42853313    -0.06100
N2104       N  0.55761842  0.95154644  0.40264748    -0.61500
N2105       N  0.95372022  0.93224797  0.46191567    -0.05400
N2106       N  0.92839202  0.90693557  0.45737871    -0.58200
N2107       N  0.95224945  0.95768605  0.43476812    -0.06700
N2108       N  0.92623591  0.95061538  0.41055918    -0.61000
N2109       N  0.53417457  0.93067016  0.45424356    -0.05700
N2110       N  0.55973125  0.90518882  0.44656672    -0.58200
Mn2111     Mn  0.99117153  0.00055815  0.42907317     1.20200
Mn2112     Mn  0.99824072  0.93063016  0.50076594     1.10100
Cl2113     Cl  0.49705360  0.50098496  0.00010991    -0.86200
C2114       C  0.57412526  0.91912128  0.41463160     0.96100
C2115       C  0.91175798  0.91939956  0.42560044     0.95900
C2116       C  0.83785464  0.85236346  0.40399661     0.86300
C2117       C  0.86771454  0.82544542  0.38678325    -0.54000
C2118       C  0.89580992  0.84281465  0.36663768     0.09200
C2119       C  0.88943697  0.88669371  0.36497351     0.20100
C2120       C  0.85935601  0.88113396  0.42637139    -0.54700
C2121       C  0.88615573  0.89743832  0.40653249     0.09300
C2122       C  0.82334361  0.87730722  0.37019101    -0.54200
C2123       C  0.85031816  0.89636809  0.35066753     0.09900
H2124       H  0.86792432  0.79522094  0.39309064     0.14400
H2125       H  0.91055725  0.90228675  0.34888160     0.00100
H2126       H  0.85438563  0.88848879  0.45596535     0.14700
H2127       H  0.79447517  0.88312070  0.36495178     0.14500
C2128       C  0.83734653  0.85944159  0.10017229     0.86300
C2129       C  0.86241363  0.88697608  0.07947372    -0.54000
C2130       C  0.88825194  0.90277265  0.10183185     0.09200
C2131       C  0.88683977  0.89123430  0.14347658     0.20100
C2132       C  0.86447185  0.83123231  0.11960523    -0.54700
C2133       C  0.89148440  0.84747204  0.14180025     0.09300
C2134       C  0.82133320  0.88495697  0.13269858    -0.54200
C2135       C  0.84728248  0.90140242  0.15506511     0.09900
H2136       H  0.86096027  0.89282669  0.04920419     0.14400
H2137       H  0.90593353  0.90587478  0.16249747     0.00100
H2138       H  0.86416905  0.80107132  0.11310039     0.14700
H2139       H  0.79250307  0.89255597  0.13573919     0.14500
N2140       N  0.79888082  0.83609324  0.00195497    -0.36800
N2141       N  0.74360622  0.83531170  0.06054346    -0.57400
N2142       N  0.68693306  0.83345292  0.99973490    -0.36800
N2143       N  0.74332671  0.83507983  0.44141505    -0.57400
C2144       C  0.82027906  0.83245560  0.03351772     0.26700
C2145       C  0.81997625  0.82784041  0.47095294     0.26700
C2146       C  0.66597344  0.83843459  0.03168936     0.26700
C2147       C  0.66578274  0.84190043  0.46842125     0.26700
C2148       C  0.77303036  0.83482239  0.08383365     0.35400
C2149       C  0.71384222  0.83093654  0.08285605     0.35400
C2150       C  0.77339007  0.82844702  0.41972436     0.35400
C2151       C  0.71384969  0.82965775  0.41906168     0.35400
C2152       C  0.85529367  0.82102583  0.02235200    -0.22100
C2153       C  0.85506726  0.81791524  0.48322501    -0.22100
C2154       C  0.63072019  0.84711042  0.02035323    -0.22100
C2155       C  0.63091606  0.85107607  0.48159765    -0.22100
C2156       C  0.76202035  0.82808862  0.12088773    -0.23200
C2157       C  0.72447659  0.82618826  0.12037645    -0.23200
C2158       C  0.76324154  0.81750256  0.38362381    -0.23200
C2159       C  0.72549787  0.81775172  0.38329318    -0.23200
C2160       C  0.80949398  0.84132650  0.07191065    -0.18500
C2161       C  0.80980257  0.83375166  0.43177235    -0.18500
C2162       C  0.67732622  0.84100099  0.42880545    -0.18500
C2163       C  0.67723551  0.83626467  0.07092042    -0.18500
H2164       H  0.87879566  0.81593792  0.04046139     0.14400
H2165       H  0.87853123  0.81048200  0.46565326     0.14400
H2166       H  0.60656669  0.84889542  0.03787757     0.14400
H2167       H  0.60710153  0.85936815  0.46628644     0.14400
H2168       H  0.77917653  0.82480750  0.14573863     0.12700
H2169       H  0.70693057  0.82235412  0.14491485     0.12700
H2170       H  0.78119930  0.81012826  0.36009306     0.12700
H2171       H  0.70850424  0.81127137  0.35907106     0.12700
H2172       H  0.77237425  0.84727362  0.00126852     0.25900
H2173       H  0.71422653  0.82477897  0.99981056     0.25900
C2174       C  0.90137977  0.65677464  0.36556741     0.86300
C2175       C  0.91470735  0.62996300  0.39640149    -0.54000
C2176       C  0.88917522  0.60520806  0.40907016     0.09200
C2177       C  0.85155223  0.60981849  0.39229410     0.20100
C2178       C  0.88431641  0.63018776  0.33560558    -0.54700
C2179       C  0.85895602  0.60441870  0.34917818     0.09300
C2180       C  0.86831190  0.67671699  0.38656662    -0.54200
C2181       C  0.84318671  0.65201405  0.40187002     0.09900
H2182       H  0.94205077  0.63060768  0.40848441     0.14400
H2183       H  0.83058613  0.59088450  0.40444218     0.00100
H2184       H  0.89445406  0.62945017  0.30657505     0.14700
H2185       H  0.86771943  0.70676052  0.39362401     0.14500
N2186       N  0.84679463  0.55904996  0.25499588    -0.36800
N2187       N  0.83988910  0.00237255  0.19501318    -0.57400
N2188       N  0.83804772  0.94183909  0.25384278    -0.36800
N2189       N  0.84312454  0.00017403  0.31395365    -0.57400
C2190       C  0.83830589  0.58080612  0.22425035     0.26700
C2191       C  0.83838454  0.58010976  0.28622995     0.26700
C2192       C  0.83693766  0.91969083  0.22239360     0.26700
C2193       C  0.83891050  0.91831060  0.28439781     0.26700
C2194       C  0.84726830  0.53323358  0.17286114     0.35400
C2195       C  0.84205216  0.97092689  0.17248204     0.35400
C2196       C  0.84677247  0.53120137  0.33703381     0.35400
C2197       C  0.84417061  0.96802582  0.33589338     0.35400
C2198       C  0.82353701  0.61542106  0.23614591    -0.22100
C2199       C  0.82366026  0.61501705  0.27513466    -0.22100
C2200       C  0.83603067  0.88175890  0.23320290    -0.22100
C2201       C  0.83734688  0.88087323  0.27209594    -0.22100
C2202       C  0.85377848  0.52063176  0.13612284    -0.23200
C2203       C  0.84933381  0.98213284  0.13572255    -0.23200
C2204       C  0.84901773  0.51809324  0.37414318    -0.23200
C2205       C  0.84708224  0.97893720  0.37340677    -0.23200
C2206       C  0.84709378  0.57207011  0.18585948    -0.18500
C2207       C  0.84687067  0.57060243  0.32444317    -0.18500
C2208       C  0.84294338  0.92896032  0.32301214    -0.18500
C2209       C  0.83942794  0.93198399  0.18410281    -0.18500
H2210       H  0.81452886  0.63895533  0.21843526     0.14400
H2211       H  0.81470170  0.63816751  0.29339580     0.14400
H2212       H  0.83539796  0.85705185  0.21493675     0.14400
H2213       H  0.83783985  0.85531117  0.28925833     0.14400
H2214       H  0.86092772  0.53593992  0.11115581     0.12700
H2215       H  0.85129748  0.96471216  0.11065346     0.12700
H2216       H  0.85019389  0.53399822  0.39994152     0.12700
H2217       H  0.84664283  0.96085179  0.39815875     0.12700
H2218       H  0.86084023  0.53301356  0.25463477     0.25900
H2219       H  0.83964328  0.97113149  0.25427266     0.25900
C2220       C  0.89974436  0.65949769  0.14606311     0.86300
C2221       C  0.86715371  0.67694145  0.12258536    -0.54000
C2222       C  0.84453826  0.65040834  0.10649488     0.09200
C2223       C  0.85526504  0.60899837  0.11720049     0.20100
C2224       C  0.88218477  0.63289761  0.17552612    -0.54700
C2225       C  0.85920572  0.60558019  0.16105210     0.09300
C2226       C  0.91721970  0.63295113  0.11712577    -0.54200
C2227       C  0.89487067  0.60600035  0.10363866     0.09900
H2228       H  0.86447502  0.70698079  0.11585216     0.14400
H2229       H  0.83607614  0.58896734  0.10398529     0.00100
H2230       H  0.89038807  0.63352850  0.20512449     0.14700
H2231       H  0.94536544  0.63517217  0.10713879     0.14500
N2232       N  0.75019912  0.65797582  0.44562987    -0.36800
N2233       N  0.69274549  0.66091401  0.00425583    -0.57400
N2234       N  0.74900868  0.66459807  0.06426690    -0.36800
N2235       N  0.80678781  0.66225700  0.00481405    -0.57400
C2236       C  0.72015099  0.66247612  0.42344531     0.26700
C2237       C  0.77973106  0.66582157  0.42368646     0.26700
C2238       C  0.71862423  0.65944448  0.08614818     0.26700
C2239       C  0.77888593  0.65837289  0.08663301     0.26700
C2240       C  0.67114846  0.66080002  0.47270878     0.35400
C2241       C  0.67034314  0.66474061  0.03518409     0.35400
C2242       C  0.82888720  0.66135490  0.47333430     0.35400
C2243       C  0.82861910  0.66132284  0.03627867     0.35400
C2244       C  0.73066527  0.67447544  0.38756945    -0.22100
C2245       C  0.76826084  0.67598886  0.38752774    -0.22100
C2246       C  0.72943159  0.65100623  0.12297635    -0.22100
C2247       C  0.76713410  0.65039554  0.12331477    -0.22100
C2248       C  0.63482263  0.66602705  0.48386343    -0.23200
C2249       C  0.63432358  0.66825613  0.02297165    -0.23200
C2250       C  0.86512713  0.66066243  0.48509450    -0.23200
C2251       C  0.86497644  0.66066572  0.02443172    -0.23200
C2252       C  0.68359091  0.65460593  0.43413133    -0.18500
C2253       C  0.81691714  0.66176744  0.43422617    -0.18500
C2254       C  0.81655997  0.65894024  0.07540374    -0.18500
C2255       C  0.68128521  0.66164810  0.07428715    -0.18500
H2256       H  0.71303248  0.68136313  0.36377194     0.14400
H2257       H  0.78528078  0.68381844  0.36358955     0.14400
H2258       H  0.71199136  0.64541113  0.14721032     0.14400
H2259       H  0.78392176  0.64420880  0.14792104     0.14400
H2260       H  0.61093710  0.66797737  0.46576064     0.12700
H2261       H  0.61000131  0.67189004  0.04036026     0.12700
H2262       H  0.88932783  0.66117375  0.46730111     0.12700
H2263       H  0.88908239  0.66050746  0.04221745     0.12700
H2264       H  0.75063719  0.64725996  0.47311847     0.25900
H2265       H  0.74929661  0.67216621  0.03582472     0.25900
C2266       C  0.64346930  0.89952338  0.33987167     0.86300
C2267       C  0.61795112  0.86759396  0.32376365    -0.54000
C2268       C  0.59972870  0.84677032  0.35129750     0.09200
C2269       C  0.61108160  0.85805800  0.39206337     0.20100
C2270       C  0.61687049  0.92088245  0.36470653    -0.54700
C2271       C  0.60158780  0.90053403  0.39250895     0.09300
C2272       C  0.66987810  0.87940435  0.36771814    -0.54200
C2273       C  0.65387523  0.85723715  0.39568192     0.09900
H2274       H  0.61175781  0.86450945  0.29383421     0.14400
H2275       H  0.59601163  0.84045803  0.41264135     0.00100
H2276       H  0.60843089  0.95011823  0.35899699     0.14700
H2277       H  0.69896523  0.88547663  0.36703628     0.14500
N2278       N  0.94415224  0.75110598  0.35145099    -0.36800
N2279       N  0.99882707  0.81038020  0.34630622    -0.57400
N2280       N  0.55754048  0.74992467  0.34637919    -0.36800
N2281       N  0.00218651  0.69097992  0.34686350    -0.57400
C2282       C  0.92362070  0.78211300  0.34186411     0.26700
C2283       C  0.92478334  0.72030886  0.34118415     0.26700
C2284       C  0.57770902  0.78095953  0.33759580     0.26700
C2285       C  0.57910715  0.71851940  0.33999346     0.26700
C2286       C  0.96837229  0.83237789  0.35526101     0.35400
C2287       C  0.52955202  0.83201449  0.34996133     0.35400
C2288       C  0.97162948  0.66895930  0.34929802     0.35400
C2289       C  0.53269649  0.66765669  0.34944755     0.35400
C2290       C  0.89172853  0.77079765  0.32400886    -0.22100
C2291       C  0.89239693  0.73172970  0.32378552    -0.22100
C2292       C  0.61208158  0.76904726  0.32483049    -0.22100
C2293       C  0.61284765  0.72993261  0.32603404    -0.22100
C2294       C  0.98028818  0.86844699  0.36426588    -0.23200
C2295       C  0.51806594  0.86844120  0.35951941    -0.23200
C2296       C  0.98302623  0.63125771  0.35054443    -0.23200
C2297       C  0.52075104  0.63051130  0.35194430    -0.23200
C2298       C  0.93050072  0.81981538  0.35353635    -0.18500
C2299       C  0.93369254  0.68238388  0.35089900    -0.18500
C2300       C  0.57063412  0.67992006  0.34900272    -0.18500
C2301       C  0.56759290  0.81969955  0.34426699    -0.18500
H2302       H  0.86958614  0.78891298  0.31367893     0.14400
H2303       H  0.87102193  0.71368648  0.31306150     0.14400
H2304       H  0.63463825  0.78672625  0.31613297     0.14400
H2305       H  0.63600984  0.71184807  0.31818815     0.14400
H2306       H  0.96422618  0.89293181  0.37262272     0.12700
H2307       H  0.53479263  0.89314438  0.36118102     0.12700
H2308       H  0.96607891  0.60631136  0.35023003     0.12700
H2309       H  0.53630838  0.60461638  0.35350492     0.12700
H2310       H  0.96795345  0.75083458  0.36776039     0.25900
H2311       H  0.53178671  0.75040967  0.35911464     0.25900
C2312       C  0.65719989  0.63851284  0.40321789     0.86300
C2313       C  0.63016671  0.66816292  0.38573812    -0.54000
C2314       C  0.60381172  0.65421986  0.36136695     0.09200
C2315       C  0.60907954  0.61027099  0.35594221     0.20100
C2316       C  0.63261165  0.60854092  0.42044547    -0.54700
C2317       C  0.60701819  0.59497195  0.39653325     0.09300
C2318       C  0.67446872  0.61618198  0.36908177    -0.54200
C2319       C  0.64947142  0.60072907  0.34477123     0.09900
H2320       H  0.63009325  0.69758938  0.39503675     0.14400
H2321       H  0.59017679  0.59701278  0.33562882     0.00100
H2322       H  0.63363949  0.59991213  0.45006823     0.14700
H2323       H  0.70346631  0.60898380  0.36681641     0.14500
N2324       N  0.65805374  0.94161459  0.24457298    -0.36800
N2325       N  0.66438063  0.50006159  0.30373499    -0.57400
N2326       N  0.65449633  0.55923850  0.24682359    -0.36800
N2327       N  0.65478533  0.50094312  0.18657704    -0.57400
C2328       C  0.66640441  0.91926811  0.27463683     0.26700
C2329       C  0.66274214  0.92005529  0.21316720     0.26700
C2330       C  0.66175764  0.58106015  0.27755871     0.26700
C2331       C  0.65873681  0.58134105  0.21568954     0.26700
C2332       C  0.66747727  0.96820330  0.32561459     0.35400
C2333       C  0.66373663  0.53085356  0.32735192     0.35400
C2334       C  0.65022666  0.96972096  0.16403994     0.35400
C2335       C  0.64858864  0.53266315  0.16487854     0.35400
C2336       C  0.67734577  0.88344700  0.26240322    -0.22100
C2337       C  0.67516667  0.88393170  0.22347420    -0.22100
C2338       C  0.67097113  0.61725458  0.26594242    -0.22100
C2339       C  0.66975869  0.61727233  0.22695558    -0.22100
C2340       C  0.67162947  0.97942556  0.36325130    -0.27000
C2341       C  0.66822481  0.51859657  0.36439824    -0.23200
C2342       C  0.64316113  0.98213898  0.12766723    -0.23200
C2343       C  0.64160613  0.52098923  0.12822080    -0.23200
C2344       C  0.66149470  0.92944102  0.31287587    -0.18500
C2345       C  0.65208231  0.93049467  0.17600410    -0.18500
C2346       C  0.64920662  0.57159532  0.17779950    -0.18500
C2347       C  0.65901786  0.56983885  0.31594601    -0.18500
H2348       H  0.68536960  0.85934544  0.27984588     0.14400
H2349       H  0.68094618  0.86007148  0.20485171     0.14400
H2350       H  0.67801583  0.64110909  0.28374185     0.14400
H2351       H  0.67531420  0.64145599  0.20891488     0.14400
H2352       H  0.67504848  0.96110932  0.38775142     0.12700
H2353       H  0.66921865  0.53598779  0.38967871     0.12700
H2354       H  0.64127415  0.96600164  0.10217765     0.12700
H2355       H  0.63709341  0.53747014  0.10321139     0.12700
H2356       H  0.64624836  0.96861644  0.24582220     0.25900
H2357       H  0.64416652  0.53197695  0.24722156     0.25900
C2358       C  0.59465534  0.66058061  0.14080904     0.86300
C2359       C  0.61049493  0.63117480  0.16875698    -0.54000
C2360       C  0.63474863  0.60469053  0.15355008     0.09200
C2361       C  0.64088571  0.61096492  0.11031461     0.20100
C2362       C  0.62864413  0.67861287  0.12063089    -0.54700
C2363       C  0.65231871  0.65245886  0.10388944     0.09300
C2364       C  0.57868568  0.63712121  0.10903619    -0.54200
C2365       C  0.60220815  0.61101323  0.09389505     0.09900
H2366       H  0.60130762  0.63025209  0.19811555     0.14400
H2367       H  0.66063889  0.59098266  0.09660351     0.00100
H2368       H  0.63151541  0.70892855  0.11605589     0.14700
H2369       H  0.55031818  0.63980507  0.09976436     0.14500
C2370       C  0.59292057  0.84731575  0.13819904     0.86300
C2371       C  0.57957967  0.87307330  0.10654169    -0.54000
C2372       C  0.60514250  0.89703611  0.09277223     0.09200
C2373       C  0.64325368  0.89180495  0.10903811     0.20100
C2374       C  0.62516168  0.82574350  0.11774332    -0.54700
C2375       C  0.65077606  0.84903201  0.10162539     0.09300
C2376       C  0.61091014  0.87415906  0.16691182    -0.54200
C2377       C  0.63694789  0.89817592  0.15208619     0.09900
H2378       H  0.55224544  0.87213907  0.09448577     0.14400
H2379       H  0.66446765  0.90989963  0.09596312     0.00100
H2380       H  0.62521929  0.79541682  0.11201794     0.14700
H2381       H  0.60167535  0.87580500  0.19623718     0.14500
N2382       N  0.55137545  0.75496266  0.15710912    -0.36800
N2383       N  0.99675949  0.69703067  0.16499465    -0.57400
N2384       N  0.93857189  0.75533541  0.15905070    -0.36800
N2385       N  0.99306611  0.81414163  0.15925696    -0.57400
C2386       C  0.57261890  0.72461016  0.16639375     0.26700
C2387       C  0.57062947  0.78594123  0.16613858     0.26700
C2388       C  0.91903394  0.72462520  0.16927340     0.26700
C2389       C  0.91734545  0.78631741  0.16682000     0.26700
C2390       C  0.52733383  0.67414269  0.16418854     0.35400
C2391       C  0.96709380  0.67414952  0.16683083     0.35400
C2392       C  0.52333461  0.83625774  0.15565460     0.35400
C2393       C  0.96252910  0.83688999  0.15441967     0.35400
C2394       C  0.60511099  0.73616436  0.18253273    -0.22100
C2395       C  0.60377566  0.77520588  0.18260729    -0.22100
C2396       C  0.88558695  0.73599758  0.18456497    -0.22100
C2397       C  0.88456099  0.77504684  0.18322532    -0.22100
C2398       C  0.51704623  0.63658535  0.16803218    -0.23200
C2399       C  0.97926416  0.63662992  0.17034930    -0.23200
C2400       C  0.51173970  0.87365907  0.15173525    -0.23200
C2401       C  0.97420642  0.87386123  0.14918117    -0.23200
C2402       C  0.56417803  0.68692320  0.15819294    -0.18500
C2403       C  0.56118359  0.82307101  0.15492923    -0.18500
C2404       C  0.92494511  0.82403699  0.15563517    -0.18500
C2405       C  0.92939137  0.68658133  0.16225179    -0.18500
H2406       H  0.62755213  0.71826702  0.19254776     0.14400
H2407       H  0.62528092  0.79367386  0.19227447     0.14400
H2408       H  0.86398968  0.71791499  0.19494587     0.14400
H2409       H  0.86181136  0.79314076  0.19219893     0.14400
H2410       H  0.53481688  0.61162571  0.16897189     0.12700
H2411       H  0.96262180  0.61160974  0.17334652     0.12700
H2412       H  0.52841873  0.89878635  0.15066625     0.12700
H2413       H  0.95890418  0.89946325  0.14471851     0.12700
H2414       H  0.52698428  0.75456076  0.14183492     0.25900
H2415       H  0.96325880  0.75484057  0.14412910     0.25900
N2416       N  0.54308219  0.54560904  0.56454396    -0.06400
N2417       N  0.57157693  0.55231960  0.58596343    -0.58500
N2418       N  0.95695978  0.56914340  0.54465378    -0.06000
N2419       N  0.92738683  0.59054592  0.54776165    -0.60600
N2420       N  0.95884403  0.54422969  0.57211492    -0.05600
N2421       N  0.93074059  0.54879734  0.59530332    -0.58400
N2422       N  0.54092280  0.57047463  0.53700659    -0.05300
N2423       N  0.56782164  0.59467872  0.53891452    -0.61000
C2424       C  0.58702654  0.58286383  0.56952533     0.95800
C2425       C  0.91114407  0.57781829  0.57946914     0.95600
N2426       N  0.94831236  0.54195194  0.93578243    -0.06500
N2427       N  0.91768398  0.54596835  0.91685284    -0.59000
N2428       N  0.53237342  0.57038298  0.95133948    -0.04700
N2429       N  0.55977647  0.59309377  0.94516688    -0.60300
N2430       N  0.53092420  0.54432950  0.92492628    -0.06600
N2431       N  0.55722654  0.54849620  0.89961218    -0.59300
N2432       N  0.94969460  0.56694845  0.96294802    -0.04300
N2433       N  0.91988043  0.58803906  0.96395458    -0.60400
Mn2434     Mn  0.49532704  0.57111236  0.49903183     1.18400
C2435       C  0.90075503  0.57586884  0.93393938     0.97900
C2436       C  0.57472084  0.57904442  0.91297148     0.98600
N2437       N  0.96251038  0.95735772  0.57476260    -0.06600
N2438       N  0.93578447  0.95219526  0.59945591    -0.62900
N2439       N  0.54416073  0.93500340  0.53734126    -0.05400
N2440       N  0.57375258  0.91347635  0.53717426    -0.63600
N2441       N  0.54554039  0.96034328  0.56431806    -0.06100
N2442       N  0.57586441  0.95606959  0.58372922    -0.63200
N2443       N  0.96143753  0.93182893  0.54777367    -0.05000
N2444       N  0.93415479  0.90875671  0.55279295    -0.63900
Mn2445     Mn  0.50256646  0.50196179  0.57152390     1.10700
C2446       C  0.91859660  0.92183423  0.58486242     0.99100
C2447       C  0.59288831  0.92590607  0.56720210     0.99200
N2448       N  0.53272076  0.95748110  0.92853312    -0.06100
N2449       N  0.55761843  0.95154640  0.90264747    -0.61500
N2450       N  0.95372022  0.93224793  0.96191569    -0.05400
N2451       N  0.92839195  0.90693557  0.95737880    -0.58200
N2452       N  0.95224948  0.95768597  0.93476811    -0.06700
N2453       N  0.92623591  0.95061531  0.91055919    -0.61000
N2454       N  0.53417459  0.93067012  0.95424356    -0.05700
N2455       N  0.55973127  0.90518878  0.94656671    -0.58200
Mn2456     Mn  0.99117154  0.00055808  0.92907315     1.20200
Mn2457     Mn  0.99824072  0.93063012  0.00076596     1.10100
Cl2458     Cl  0.49705346  0.50098494  0.50010991    -0.86200
C2459       C  0.57412528  0.91912125  0.91463159     0.96100
C2460       C  0.91175794  0.91939955  0.92560052     0.95900
C2461       C  0.83785466  0.85236346  0.90399661     0.86300
C2462       C  0.86771457  0.82544548  0.88678325    -0.54000
C2463       C  0.89580996  0.84281465  0.86663768     0.09200
C2464       C  0.88943700  0.88669371  0.86497352     0.20100
C2465       C  0.85935597  0.88113400  0.92637137    -0.54700
C2466       C  0.88615573  0.89743831  0.90653251     0.09300
C2467       C  0.82334363  0.87730719  0.87019098    -0.54200
C2468       C  0.85031819  0.89636807  0.85066751     0.09900
H2469       H  0.86792437  0.79522091  0.89309065     0.14400
H2470       H  0.91055727  0.90228676  0.84888162     0.00100
H2471       H  0.85438554  0.88848889  0.95596533     0.14700
H2472       H  0.79447519  0.88312067  0.86495176     0.14500
C2473       C  0.83734655  0.85944156  0.60017229     0.86300
C2474       C  0.86241365  0.88697604  0.57947371    -0.54000
C2475       C  0.88825197  0.90277262  0.60183183     0.09200
C2476       C  0.88683977  0.89123428  0.64347656     0.20100
C2477       C  0.86447187  0.83123235  0.61960525    -0.54700
C2478       C  0.89148443  0.84747205  0.64180024     0.09300
C2479       C  0.82133322  0.88495692  0.63269858    -0.54200
C2480       C  0.84728248  0.90140240  0.65506510     0.09900
H2481       H  0.86096029  0.89282666  0.54920418     0.14400
H2482       H  0.90593358  0.90587480  0.66249745     0.00100
H2483       H  0.86416906  0.80107126  0.61310041     0.14700
H2484       H  0.79250309  0.89255586  0.63573920     0.14500
N2485       N  0.79888082  0.83609319  0.50195497    -0.36800
N2486       N  0.74360622  0.83531164  0.56054344    -0.57400
N2487       N  0.68693301  0.83345295  0.49973489    -0.36800
N2488       N  0.74332669  0.83507976  0.94141505    -0.57400
C2489       C  0.82027907  0.83245560  0.53351771     0.26700
C2490       C  0.81997626  0.82784045  0.97095294     0.26700
C2491       C  0.66597341  0.83843455  0.53168936     0.26700
C2492       C  0.66578274  0.84190038  0.96842125     0.26700
C2493       C  0.77303036  0.83482233  0.58383364     0.35400
C2494       C  0.71384220  0.83093648  0.58285604     0.35400
C2495       C  0.77339007  0.82844702  0.91972435     0.35400
C2496       C  0.71384969  0.82965768  0.91906168     0.35400
C2497       C  0.85529370  0.82102592  0.52235198    -0.22100
C2498       C  0.85506728  0.81791530  0.98322501    -0.22100
C2499       C  0.63072017  0.84711039  0.52035323    -0.22100
C2500       C  0.63091607  0.85107603  0.98159765    -0.22100
C2501       C  0.76202035  0.82808859  0.62088772    -0.23200
C2502       C  0.72447659  0.82618821  0.62037646    -0.23200
C2503       C  0.76324154  0.81750266  0.88362377    -0.23200
C2504       C  0.72549787  0.81775171  0.88329317    -0.23200
C2505       C  0.80949400  0.84132646  0.57191065    -0.18500
C2506       C  0.80980257  0.83375164  0.93177235    -0.18500
C2507       C  0.67732620  0.84100093  0.92880544    -0.18500
C2508       C  0.67723550  0.83626460  0.57092042    -0.18500
H2509       H  0.87879573  0.81593817  0.54046135     0.14400
H2510       H  0.87853125  0.81048214  0.96565327     0.14400
H2511       H  0.60656667  0.84889535  0.53787757     0.14400
H2512       H  0.60710153  0.85936809  0.96628645     0.14400
H2513       H  0.77917652  0.82480750  0.64573863     0.12700
H2514       H  0.70693062  0.82235410  0.64491484     0.12700
H2515       H  0.78119931  0.81012843  0.86009304     0.12700
H2516       H  0.70850424  0.81127130  0.85907105     0.12700
H2517       H  0.77237424  0.84727356  0.50126854     0.25900
H2518       H  0.71422652  0.82477903  0.49981055     0.25900
C2519       C  0.90137980  0.65677463  0.86556742     0.86300
C2520       C  0.91470737  0.62996296  0.89640147    -0.54000
C2521       C  0.88917523  0.60520804  0.90907016     0.09200
C2522       C  0.85155224  0.60981846  0.89229409     0.20100
C2523       C  0.88431641  0.63018781  0.83560557    -0.54700
C2524       C  0.85895604  0.60441871  0.84917816     0.09300
C2525       C  0.86831192  0.67671696  0.88656664    -0.54200
C2526       C  0.84318673  0.65201402  0.90187003     0.09900
H2527       H  0.94205079  0.63060763  0.90848440     0.14400
H2528       H  0.83058614  0.59088448  0.90444214     0.00100
H2529       H  0.89445404  0.62945031  0.80657503     0.14700
H2530       H  0.86771944  0.70676049  0.89362403     0.14500
N2531       N  0.84679464  0.55904999  0.75499585    -0.36800
N2532       N  0.83988901  0.00237254  0.69501318    -0.57400
N2533       N  0.83804770  0.94183906  0.75384279    -0.36800
N2534       N  0.84312457  0.00017403  0.81395363    -0.57400
C2535       C  0.83830591  0.58080618  0.72425035     0.26700
C2536       C  0.83838458  0.58010980  0.78622993     0.26700
C2537       C  0.83693758  0.91969081  0.72239359     0.26700
C2538       C  0.83891045  0.91831058  0.78439781     0.26700
C2539       C  0.84726820  0.53323361  0.67286112     0.35400
C2540       C  0.84205207  0.97092690  0.67248200     0.35400
C2541       C  0.84677248  0.53120139  0.83703379     0.35400
C2542       C  0.84417064  0.96802582  0.83589335     0.35400
C2543       C  0.82353706  0.61542110  0.73614594    -0.22100
C2544       C  0.82366028  0.61501710  0.77513467    -0.22100
C2545       C  0.83603059  0.88175890  0.73320294    -0.22100
C2546       C  0.83734674  0.88087324  0.77209596    -0.22100
C2547       C  0.85377834  0.52063176  0.63612281    -0.23200
C2548       C  0.84933378  0.98213289  0.63572251    -0.23200
C2549       C  0.84901775  0.51809331  0.87414319    -0.23200
C2550       C  0.84708221  0.97893717  0.87340676    -0.23200
C2551       C  0.84709377  0.57207016  0.68585947    -0.18500
C2552       C  0.84687070  0.57060247  0.82444314    -0.18500
C2553       C  0.84294341  0.92896032  0.82301213    -0.18500
C2554       C  0.83942790  0.93198397  0.68410281    -0.18500
H2555       H  0.81452890  0.63895546  0.71843527     0.14400
H2556       H  0.81470168  0.63816753  0.79339580     0.14400
H2557       H  0.83539800  0.85705177  0.71493680     0.14400
H2558       H  0.83783968  0.85531118  0.78925837     0.14400
H2559       H  0.86092755  0.53593990  0.61115575     0.12700
H2560       H  0.85129760  0.96471229  0.61065344     0.12700
H2561       H  0.85019393  0.53399824  0.89994149     0.12700
H2562       H  0.84664286  0.96085173  0.89815870     0.12700
H2563       H  0.86084021  0.53301359  0.75463473     0.25900
H2564       H  0.83964339  0.97113147  0.75427267     0.25900
C2565       C  0.89974436  0.65949777  0.64606310     0.86300
C2566       C  0.86715369  0.67694148  0.62258535    -0.54000
C2567       C  0.84453829  0.65040835  0.60649486     0.09200
C2568       C  0.85526510  0.60899842  0.61720050     0.20100
C2569       C  0.88218480  0.63289766  0.67552611    -0.54700
C2570       C  0.85920573  0.60558024  0.66105211     0.09300
C2571       C  0.91721972  0.63295123  0.61712576    -0.54200
C2572       C  0.89487072  0.60600041  0.60363868     0.09900
H2573       H  0.86447491  0.70698082  0.61585216     0.14400
H2574       H  0.83607618  0.58896734  0.60398531     0.00100
H2575       H  0.89038817  0.63352852  0.70512446     0.14700
H2576       H  0.94536547  0.63517233  0.60713879     0.14500
N2577       N  0.75019914  0.65797577  0.94562991    -0.36800
N2578       N  0.69274550  0.66091398  0.50425583    -0.57400
N2579       N  0.74900870  0.66459802  0.56426689    -0.36800
N2580       N  0.80678781  0.66225696  0.50481407    -0.57400
C2581       C  0.72015101  0.66247611  0.92344530     0.26700
C2582       C  0.77973108  0.66582151  0.92368646     0.26700
C2583       C  0.71862425  0.65944446  0.58614817     0.26700
C2584       C  0.77888595  0.65837283  0.58663300     0.26700
C2585       C  0.67114846  0.66080002  0.97270878     0.35400
C2586       C  0.67034315  0.66474060  0.53518409     0.35400
C2587       C  0.82888721  0.66135498  0.97333430     0.35400
C2588       C  0.82861911  0.66132290  0.53627867     0.35400
C2589       C  0.73066529  0.67447540  0.88756942    -0.22100
C2590       C  0.76826085  0.67598879  0.88752775    -0.22100
C2591       C  0.72943161  0.65100618  0.62297634    -0.22100
C2592       C  0.76713411  0.65039547  0.62331474    -0.22100
C2593       C  0.63482263  0.66602704  0.98386342    -0.23200
C2594       C  0.63432359  0.66825610  0.52297166    -0.23200
C2595       C  0.86512711  0.66066244  0.98509452    -0.23200
C2596       C  0.86497645  0.66066575  0.52443172    -0.23200
C2597       C  0.68359091  0.65460599  0.93413132    -0.18500
C2598       C  0.81691716  0.66176743  0.93422616    -0.18500
C2599       C  0.81655998  0.65894022  0.57540373    -0.18500
C2600       C  0.68128522  0.66164814  0.57428715    -0.18500
H2601       H  0.71303255  0.68136312  0.86377194     0.14400
H2602       H  0.78528080  0.68381842  0.86358951     0.14400
H2603       H  0.71199137  0.64541110  0.64721030     0.14400
H2604       H  0.78392181  0.64420873  0.64792103     0.14400
H2605       H  0.61093712  0.66797740  0.96576061     0.12700
H2606       H  0.61000133  0.67188998  0.54036028     0.12700
H2607       H  0.88932788  0.66117370  0.96730112     0.12700
H2608       H  0.88908241  0.66050743  0.54221744     0.12700
H2609       H  0.75063720  0.64725994  0.97311849     0.25900
H2610       H  0.74929663  0.67216619  0.53582473     0.25900
C2611       C  0.64346933  0.89952337  0.83987165     0.86300
C2612       C  0.61795116  0.86759397  0.82376363    -0.54000
C2613       C  0.59972869  0.84677036  0.85129748     0.09200
C2614       C  0.61108159  0.85805802  0.89206338     0.20100
C2615       C  0.61687052  0.92088246  0.86470650    -0.54700
C2616       C  0.60158784  0.90053405  0.89250895     0.09300
C2617       C  0.66987813  0.87940432  0.86771812    -0.54200
C2618       C  0.65387523  0.85723714  0.89568191     0.09900
H2619       H  0.61175789  0.86450941  0.79383419     0.14400
H2620       H  0.59601159  0.84045812  0.91264133     0.00100
H2621       H  0.60843084  0.95011819  0.85899689     0.14700
H2622       H  0.69896527  0.88547657  0.86703626     0.14500
N2623       N  0.94415228  0.75110594  0.85145103    -0.36800
N2624       N  0.99882710  0.81038015  0.84630622    -0.57400
N2625       N  0.55754046  0.74992467  0.84637920    -0.36800
N2626       N  0.00218655  0.69097991  0.84686349    -0.57400
C2627       C  0.92362070  0.78211294  0.84186421     0.26700
C2628       C  0.92478336  0.72030882  0.84118420     0.26700
C2629       C  0.57770902  0.78095953  0.83759581     0.26700
C2630       C  0.57910708  0.71851936  0.83999346     0.26700
C2631       C  0.96837232  0.83237785  0.85526100     0.35400
C2632       C  0.52955203  0.83201448  0.84996133     0.35400
C2633       C  0.97162951  0.66895930  0.84929801     0.35400
C2634       C  0.53269642  0.66765663  0.84944755     0.35400
C2635       C  0.89172855  0.77079760  0.82400896    -0.22100
C2636       C  0.89239691  0.73172965  0.82378564    -0.22100
C2637       C  0.61208158  0.76904722  0.82483048    -0.22100
C2638       C  0.61284761  0.72993253  0.82603400    -0.22100
C2639       C  0.98028820  0.86844695  0.86426588    -0.23200
C2640       C  0.51806595  0.86844116  0.85951941    -0.23200
C2641       C  0.98302624  0.63125771  0.85054443    -0.23200
C2642       C  0.52075092  0.63051124  0.85194429    -0.23200
C2643       C  0.93050074  0.81981534  0.85353638    -0.18500
C2644       C  0.93369257  0.68238386  0.85089901    -0.18500
C2645       C  0.57063408  0.67992001  0.84900272    -0.18500
C2646       C  0.56759291  0.81969956  0.84426698    -0.18500
H2647       H  0.86958620  0.78891295  0.81367893     0.14400
H2648       H  0.87102193  0.71368644  0.81306166     0.14400
H2649       H  0.63463827  0.78672613  0.81613298     0.14400
H2650       H  0.63600969  0.71184798  0.81818810     0.14400
H2651       H  0.96422619  0.89293176  0.87262273     0.12700
H2652       H  0.53479262  0.89314435  0.86118102     0.12700
H2653       H  0.96607890  0.60631139  0.85022999     0.12700
H2654       H  0.53630818  0.60461629  0.85350487     0.12700
H2655       H  0.96795353  0.75083452  0.86776036     0.25900
H2656       H  0.53178670  0.75040968  0.85911466     0.25900
C2657       C  0.65719991  0.63851285  0.90321788     0.86300
C2658       C  0.63016672  0.66816290  0.88573809    -0.54000
C2659       C  0.60381171  0.65421982  0.86136693     0.09200
C2660       C  0.60907954  0.61027097  0.85594221     0.20100
C2661       C  0.63261167  0.60854093  0.92044546    -0.54700
C2662       C  0.60701818  0.59497201  0.89653326     0.09300
C2663       C  0.67446875  0.61618194  0.86908177    -0.54200
C2664       C  0.64947143  0.60072904  0.84477124     0.09900
H2665       H  0.63009324  0.69758936  0.89503672     0.14400
H2666       H  0.59017672  0.59701277  0.83562889     0.00100
H2667       H  0.63363953  0.59991212  0.95006822     0.14700
H2668       H  0.70346634  0.60898376  0.86681640     0.14500
N2669       N  0.65805374  0.94161462  0.74457298    -0.36800
N2670       N  0.66438065  0.50006158  0.80373496    -0.57400
N2671       N  0.65449638  0.55923867  0.74682359    -0.36800
N2672       N  0.65478535  0.50094315  0.68657705    -0.57400
C2673       C  0.66640446  0.91926814  0.77463682     0.26700
C2674       C  0.66274212  0.92005534  0.71316720     0.26700
C2675       C  0.66175766  0.58106020  0.77755871     0.26700
C2676       C  0.65873684  0.58134109  0.71568952     0.26700
C2677       C  0.66747723  0.96820333  0.82561460     0.35400
C2678       C  0.66373666  0.53085356  0.82735188     0.35400
C2679       C  0.65022652  0.96972095  0.66403994     0.35400
C2680       C  0.64858866  0.53266318  0.66487852     0.35400
C2681       C  0.67734580  0.88344706  0.76240319    -0.22100
C2682       C  0.67516671  0.88393176  0.72347417    -0.22100
C2683       C  0.67097115  0.61725464  0.76594240    -0.22100
C2684       C  0.66975873  0.61727236  0.72695555    -0.22100
C2685       C  0.67162933  0.97942564  0.86325131    -0.27000
C2686       C  0.66822482  0.51859660  0.86439821    -0.23200
C2687       C  0.64316109  0.98213897  0.62766721    -0.23200
C2688       C  0.64160615  0.52098925  0.62822079    -0.23200
C2689       C  0.66149473  0.92944105  0.81287587    -0.18500
C2690       C  0.65208220  0.93049471  0.67600412    -0.18500
C2691       C  0.64920662  0.57159532  0.67779949    -0.18500
C2692       C  0.65901788  0.56983886  0.81594600    -0.18500
H2693       H  0.68536960  0.85934547  0.77984586     0.14400
H2694       H  0.68094623  0.86007156  0.70485169     0.14400
H2695       H  0.67801581  0.64110919  0.78374182     0.14400
H2696       H  0.67531422  0.64145600  0.70891482     0.14400
H2697       H  0.67504828  0.96110940  0.88775145     0.12700
H2698       H  0.66921863  0.53598784  0.88967866     0.12700
H2699       H  0.64127420  0.96600161  0.60217763     0.12700
H2700       H  0.63709341  0.53747015  0.60321137     0.12700
H2701       H  0.64624830  0.96861646  0.74582223     0.25900
H2702       H  0.64416653  0.53197706  0.74722158     0.25900
C2703       C  0.59465533  0.66058057  0.64080907     0.86300
C2704       C  0.61049490  0.63117475  0.66875698    -0.54000
C2705       C  0.63474858  0.60469048  0.65355006     0.09200
C2706       C  0.64088571  0.61096490  0.61031459     0.20100
C2707       C  0.62864414  0.67861284  0.62063092    -0.54700
C2708       C  0.65231872  0.65245885  0.60388945     0.09300
C2709       C  0.57868564  0.63712118  0.60903617    -0.54200
C2710       C  0.60220815  0.61101320  0.59389502     0.09900
H2711       H  0.60130763  0.63025208  0.69811557     0.14400
H2712       H  0.66063892  0.59098265  0.59660352     0.00100
H2713       H  0.63151541  0.70892852  0.61605592     0.14700
H2714       H  0.55031822  0.63980503  0.59976435     0.14500
C2715       C  0.59292057  0.84731575  0.63819908     0.86300
C2716       C  0.57957969  0.87307327  0.60654174    -0.54000
C2717       C  0.60514252  0.89703606  0.59277226     0.09200
C2718       C  0.64325368  0.89180489  0.60903814     0.20100
C2719       C  0.62516168  0.82574347  0.61774335    -0.54700
C2720       C  0.65077606  0.84903195  0.60162540     0.09300
C2721       C  0.61091013  0.87415910  0.66691181    -0.54200
C2722       C  0.63694788  0.89817592  0.65208621     0.09900
H2723       H  0.55224545  0.87213904  0.59448584     0.14400
H2724       H  0.66446770  0.90989956  0.59596311     0.00100
H2725       H  0.62521926  0.79541681  0.61201790     0.14700
H2726       H  0.60167526  0.87580515  0.69623723     0.14500
N2727       N  0.55137548  0.75496263  0.65710911    -0.36800
N2728       N  0.99675949  0.69703072  0.66499465    -0.57400
N2729       N  0.93857191  0.75533547  0.65905069    -0.36800
N2730       N  0.99306608  0.81414162  0.65925695    -0.57400
C2731       C  0.57261894  0.72461014  0.66639378     0.26700
C2732       C  0.57062948  0.78594122  0.66613856     0.26700
C2733       C  0.91903396  0.72462526  0.66927340     0.26700
C2734       C  0.91734546  0.78631745  0.66681999     0.26700
C2735       C  0.52733381  0.67414270  0.66418856     0.35400
C2736       C  0.96709380  0.67414958  0.66683089     0.35400
C2737       C  0.52333460  0.83625773  0.65565459     0.35400
C2738       C  0.96252910  0.83689000  0.65441968     0.35400
C2739       C  0.60511103  0.73616440  0.68253273    -0.22100
C2740       C  0.60377565  0.77520589  0.68260727    -0.22100
C2741       C  0.88558694  0.73599764  0.68456498    -0.22100
C2742       C  0.88456099  0.77504693  0.68322531    -0.22100
C2743       C  0.51704618  0.63658538  0.66803221    -0.23200
C2744       C  0.97926415  0.63662998  0.67034943    -0.23200
C2745       C  0.51173968  0.87365908  0.65173523    -0.23200
C2746       C  0.97420643  0.87386125  0.64918116    -0.23200
C2747       C  0.56417806  0.68692317  0.65819304    -0.18500
C2748       C  0.56118359  0.82307099  0.65492923    -0.18500
C2749       C  0.92494512  0.82403702  0.65563516    -0.18500
C2750       C  0.92939138  0.68658140  0.66225179    -0.18500
H2751       H  0.62755219  0.71826708  0.69254780     0.14400
H2752       H  0.62528092  0.79367396  0.69227446     0.14400
H2753       H  0.86398969  0.71791510  0.69494585     0.14400
H2754       H  0.86181140  0.79314082  0.69219886     0.14400
H2755       H  0.53481677  0.61162574  0.66897187     0.12700
H2756       H  0.96262181  0.61160979  0.67334671     0.12700
H2757       H  0.52841865  0.89878633  0.65066623     0.12700
H2758       H  0.95890423  0.89946329  0.64471851     0.12700
H2759       H  0.52698432  0.75456069  0.64183492     0.25900
H2760       H  0.96325882  0.75484063  0.64412906     0.25900
loop_ 
_geom_bond_atom_site_label_1 
_geom_bond_atom_site_label_2 
_geom_bond_distance 
_geom_bond_site_symmetry_2 
_ccdc_geom_bond_type 
N1            N2   1.311       .  A
N1            N7   1.306       .  A
N1          Mn30   2.161       .  S
N2            C9   1.350       .  A
N3            N5   1.305       .  A
N3            N4   1.307       .  A
N3        Mn1399   2.127   1_554  S
N4           C10   1.342       .  A
N5            N6   1.315       .  A
N5        Mn1410   2.159       .  S
N6           C10   1.356       .  A
N7            N8   1.311       .  A
N7          Mn19   2.136   1_454  S
N8            C9   1.348       .  A
C9          C295   1.431       .  S
C10         C157   1.426       .  S
N11          N17   1.301       .  A
N11          N12   1.307       .  A
N11        Mn731   2.128       .  S
N12          C20   1.350       .  A
N13          N14   1.307       .  A
N13          N15   1.308       .  A
N13        Mn364   2.150   1_455  S
N14          C21   1.346       .  A
N15          N16   1.316       .  A
N15       Mn2111   2.137   1_455  S
N16          C21   1.345       .  A
N17          N18   1.305       .  A
N17       Mn1744   2.104       .  S
N18          C20   1.343       .  A
Mn19       N1383   2.127   1_556  S
Mn19        N358   2.150   1_655  S
Mn19       N1742   2.104       .  S
Mn19        Cl43   2.466   1_556  S
C20         C106   1.412       .  S
C21         C247   1.432       .  S
N22          N23   1.318       .  A
N22          N28   1.309       .  A
N22       Mn2100   2.164       .  S
N23          C31   1.350       .  A
N24          N26   1.305       .  A
N24          N25   1.306       .  A
N24       Mn1767   2.123   1_455  S
N25          C32   1.346       .  A
N26          N27   1.308       .  A
N26        Mn720   2.138       .  S
N27          C32   1.350       .  A
N28          N29   1.306       .  A
N28        Mn387   2.126       .  S
N29          C31   1.340       .  A
Mn30       N1385   2.159   1_455  S
Mn30       N2092   2.164   1_445  S
Mn30        N716   2.138   1_545  S
Mn30        Cl43   2.524   1_455  S
C31          C60   1.431       .  S
C32         C302   1.423       .  S
N33          N34   1.298       .  A
N33          N39   1.307       .  A
N33       Mn1421   2.122   1_455  S
N34          C44   1.348       .  A
N35          N36   1.304       .  A
N35          N37   1.309       .  A
N35         Mn42   2.126       .  S
N36          C45   1.344       .  A
N37          N38   1.305       .  A
N37         Mn41   2.097       .  S
N38          C45   1.334       .  A
N39          N40   1.308       .  A
N39       Mn1422   2.093   1_455  S
N40          C44   1.335       .  A
Mn41        N701   2.128       .  S
Mn41       N2085   2.137       .  S
Mn41       N1413   2.122       .  S
Mn41      Cl2458   2.511       .  S
Mn42       N1749   2.123       .  S
Mn42        N373   2.126       .  S
Mn42       N1419   2.093       .  S
Mn42      Cl2458   2.473       .  S
Cl43      Mn2456   2.511   1_554  S
Cl43      Mn2457   2.473   1_545  S
C44         C201   1.417       .  S
C45          C51   1.396       .  S
C46          C47   1.551       .  S
C46          C52   1.566       .  S
C46          C50   1.514       .  S
C46          C91   1.563       .  S
C47          H54   1.085       .  S
C47          C48   1.393       .  D
C48         C228   1.557       .  S
C48          C49   1.557       .  S
C49          C53   1.546       .  S
C49          C51   1.515       .  S
C49          H55   1.107       .  S
C50          H56   1.088       .  S
C50          C51   1.336       .  D
C52          H57   1.084       .  S
C52          C53   1.380       .  D
C53         C138   1.524       .  S
C58          C59   1.526       .  S
C58          C64   1.561       .  S
C58          C62   1.548       .  S
C58          C90   1.568       .  S
C59          H66   1.087       .  S
C59          C60   1.356       .  D
C60          C61   1.522       .  S
C61          C65   1.533       .  S
C61          C63   1.546       .  S
C61          H67   1.102       .  S
C62          H68   1.085       .  S
C62          C63   1.390       .  D
C63         C334   1.540       .  S
C64          H69   1.084       .  S
C64          C65   1.369       .  D
C65         C139   1.507       .  S
N70          C74   1.365       .  A
N70         C420   1.361   1_554  A
N70         H102   1.037       .  S
N71          C78   1.352       .  A
N71          C79   1.348       .  A
N72          C76   1.367   1_556  A
N72         C422   1.377       .  A
N72         H103   1.035       .  S
N73          C80   1.350       .  A
N73          C81   1.350       .  A
C74          C82   1.386       .  A
C74          C90   1.439       .  A
C75         N415   1.361       .  A
C75          C91   1.444       .  A
C75          C83   1.390       .  A
C76          C84   1.375       .  A
C76          C93   1.444       .  A
C77         N417   1.377       .  A
C77          C92   1.456       .  A
C77          C85   1.384       .  A
C78          C90   1.414       .  A
C78          C86   1.385       .  A
C79          C93   1.409       .  A
C79          C87   1.387       .  A
C80          C88   1.382       .  A
C80          C91   1.410       .  A
C81          C89   1.390       .  A
C81          C92   1.423       .  A
C82         C428   1.382   1_554  A
C82          H94   1.082       .  S
C83         C427   1.382       .  A
C83          H95   1.082       .  S
C84         C430   1.372   1_554  A
C84          H96   1.074       .  S
C85         C429   1.372       .  A
C85          H97   1.060       .  S
C86          C87   1.371       .  A
C86          H98   1.082       .  S
C87          H99   1.083       .  S
C88          C89   1.375       .  A
C88         H100   1.083       .  S
C89         H101   1.083       .  S
C92         C203   1.551       .  S
C93         C305   1.509       .  S
C104        C105   1.513       .  S
C104        C110   1.566       .  S
C104        C108   1.550       .  S
C104        C229   1.580       .  S
C105        H112   1.085       .  S
C105        C106   1.359       .  D
C106        C107   1.501       .  S
C107        C111   1.547       .  S
C107        C109   1.552       .  S
C107        H113   1.107       .  S
C108        H114   1.086       .  S
C108        C109   1.389       .  D
C109        C137   1.546       .  S
C110        H115   1.085       .  S
C110        C111   1.381       .  D
C111        C183   1.521       .  S
N116        C121   1.357       .  A
N116        C120   1.358       .  A
N116        H148   1.041       .  S
N117        C125   1.362       .  A
N117        C814   1.366       .  A
N118        C123   1.357       .  A
N118        C122   1.356       .  A
N118        H149   1.033       .  S
N119        C127   1.368       .  A
N119        C816   1.370       .  A
C120        C128   1.386       .  A
C120        C136   1.421       .  A
C121        C137   1.420       .  A
C121        C129   1.387       .  A
C122        C130   1.387       .  A
C122        C139   1.418       .  A
C123        C138   1.420       .  A
C123        C131   1.388       .  A
C124        N807   1.366       .  A
C124        C136   1.441       .  A
C124        C132   1.386       .  A
C125        C139   1.433       .  A
C125        C133   1.379       .  A
C126        N809   1.370       .  A
C126        C134   1.387       .  A
C126        C137   1.454       .  A
C127        C135   1.381       .  A
C127        C138   1.448       .  A
C128        C129   1.373       .  A
C128        H140   1.083       .  S
C129        H141   1.083       .  S
C130        C131   1.371       .  A
C130        H142   1.082       .  S
C131        H143   1.082       .  S
C132        C823   1.366   1_545  A
C132        H144   1.064       .  S
C133        C822   1.366       .  A
C133        H145   1.076       .  S
C134        C825   1.380   1_545  A
C134        H146   1.069       .  S
C135        C824   1.380       .  A
C135        H147   1.079       .  S
C136        C155   1.536       .  S
C150        C151   1.565       .  S
C150        C156   1.513       .  S
C150        C154   1.541       .  S
C150        C335   1.562       .  S
C151        H158   1.085       .  S
C151        C152   1.379       .  D
C152        C184   1.525       .  S
C152        C153   1.547       .  S
C153        C157   1.520       .  S
C153        C155   1.556       .  S
C153        H159   1.106       .  S
C154        H160   1.086       .  S
C154        C155   1.384       .  D
C156        H161   1.087       .  S
C156        C157   1.348       .  D
N162        C167   1.354       .  A
N162        C166   1.354       .  A
N162        H194   1.038       .  S
N163        C171   1.364       .  A
N163        C515   1.364   1_554  A
N164        C169   1.360       .  A
N164        C168   1.361       .  A
N164        H195   1.036       .  S
N165        C173   1.366       .  A
N165        C517   1.368   1_554  A
C166        C174   1.386       .  A
C166        C182   1.415       .  A
C167        C183   1.411       .  A
C167        C175   1.386       .  A
C168        C176   1.387       .  A
C168        C185   1.425       .  A
C169        C184   1.427       .  A
C169        C177   1.389       .  A
C170        N508   1.364       .  A
C170        C182   1.446       .  A
C170        C178   1.388       .  A
C171        C185   1.438       .  A
C171        C179   1.386       .  A
C172        N510   1.368       .  A
C172        C180   1.385       .  A
C172        C183   1.446       .  A
C173        C181   1.387       .  A
C173        C184   1.447       .  A
C174        C175   1.372       .  A
C174        H186   1.082       .  S
C175        H187   1.083       .  S
C176        C177   1.374       .  A
C176        H188   1.082       .  S
C177        H189   1.082       .  S
C178        C524   1.379       .  A
C178        H190   1.082       .  S
C179        C523   1.379   1_554  A
C179        H191   1.081       .  S
C180        C526   1.385       .  A
C180        H192   1.080       .  S
C181        C525   1.385   1_554  A
C181        H193   1.081       .  S
C182        C242   1.568       .  S
C185        C293   1.519       .  S
C196        C197   1.578       .  S
C196        C202   1.539       .  S
C196        C200   1.496       .  S
C196        C274   1.568       .  S
C197        H204   1.085       .  S
C197        C198   1.388       .  D
C198        C231   1.543       .  S
C198        C199   1.549       .  S
C199        C203   1.565       .  S
C199        C201   1.527       .  S
C199        H205   1.103       .  S
C200        H206   1.086       .  S
C200        C201   1.337       .  D
C202        H207   1.085       .  S
C202        C203   1.388       .  D
N208        C213   1.353       .  A
N208        C212   1.354       .  A
N208        H240   1.042       .  S
N209        C216   1.377       .  A
N209       C1597   1.371       .  A
N210        C215   1.362       .  A
N210        C214   1.361       .  A
N210        H241   1.038       .  S
N211        C218   1.370       .  A
N211       C1599   1.373       .  A
C212        C220   1.388       .  A
C212        C228   1.415       .  A
C213        C229   1.409       .  A
C213        C221   1.385       .  A
C214        C222   1.387       .  A
C214        C231   1.424       .  A
C215        C230   1.432       .  A
C215        C223   1.388       .  A
C216        C228   1.458       .  A
C216        C224   1.385       .  A
C217       N1589   1.371   1_455  A
C217        C231   1.458       .  A
C217        C225   1.382       .  A
C218        C226   1.383       .  A
C218        C229   1.453       .  A
C219       N1591   1.373       .  A
C219        C227   1.387       .  A
C219        C230   1.455       .  A
C220        C221   1.373       .  A
C220        H232   1.083       .  S
C221        H233   1.083       .  S
C222        C223   1.376       .  A
C222        H234   1.082       .  S
C223        H235   1.083       .  S
C224       C1605   1.386       .  A
C224        H236   1.073       .  S
C225       C1604   1.386   1_455  A
C225        H237   1.072       .  S
C226       C1607   1.375       .  A
C226        H238   1.082       .  S
C227       C1606   1.375   1_455  A
C227        H239   1.065       .  S
C230        C244   1.559       .  S
C242        C243   1.550       .  S
C242        C248   1.561       .  S
C242        C246   1.520       .  S
C243        H250   1.085       .  S
C243        C244   1.387       .  D
C244        C245   1.566       .  S
C245        C249   1.553       .  S
C245        C247   1.529       .  S
C245        H251   1.104       .  S
C246        H252   1.087       .  S
C246        C247   1.352       .  D
C248        H253   1.085       .  S
C248        C249   1.372       .  D
C249        C277   1.522       .  S
N254        C259   1.350       .  A
N254        C258   1.350       .  A
N254        H286   1.036       .  S
N255        C263   1.366       .  A
N255        C952   1.362   1_545  A
N256        C261   1.353       .  A
N256        C260   1.357       .  A
N256        H287   1.036       .  S
N257        C265   1.367       .  A
N257        C954   1.368   1_545  A
C258        C266   1.383       .  A
C258        C274   1.403       .  A
C259        C275   1.413       .  A
C259        C267   1.389       .  A
C260        C268   1.383       .  A
C260        C277   1.411       .  A
C261        C276   1.424       .  A
C261        C269   1.391       .  A
C262        N945   1.362       .  A
C262        C274   1.456       .  A
C262        C270   1.393       .  A
C263        C277   1.435       .  A
C263        C271   1.383       .  A
C264        N947   1.368       .  A
C264        C272   1.376       .  A
C264        C275   1.442       .  A
C265        C273   1.381       .  A
C265        C276   1.444       .  A
C266        C267   1.373       .  A
C266        H278   1.083       .  S
C267        H279   1.083       .  S
C268        C269   1.374       .  A
C268        H280   1.083       .  S
C269        H281   1.082       .  S
C270        C961   1.381       .  A
C270        H282   1.082       .  S
C271        C960   1.381   1_545  A
C271        H283   1.082       .  S
C272        C963   1.366       .  A
C272        H284   1.065       .  S
C273        C962   1.366   1_545  A
C273        H285   1.065       .  S
C275        C307   1.527       .  S
C276        C290   1.530       .  S
C288        C289   1.533       .  S
C288        C294   1.515       .  S
C288        C292   1.569       .  S
C288        C332   1.557       .  S
C289        H296   1.086       .  S
C289        C290   1.379       .  D
C290        C291   1.554       .  S
C291        C295   1.525       .  S
C291        C293   1.541       .  S
C291        H297   1.107       .  S
C292        H298   1.085       .  S
C292        C293   1.381       .  D
C294        H299   1.088       .  S
C294        C295   1.353       .  D
C300        C301   1.512       .  S
C300        C306   1.540       .  S
C300        C304   1.561       .  S
C300        C333   1.562       .  S
C301        H308   1.085       .  S
C301        C302   1.355       .  D
C302        C303   1.512       .  S
C303        C307   1.548       .  S
C303        C305   1.546       .  S
C303        H309   1.108       .  S
C304        H310   1.085       .  S
C304        C305   1.373       .  D
C306        H311   1.086       .  S
C306        C307   1.382       .  D
N312        C317   1.345       .  A
N312        C316   1.348       .  A
N312        H344   1.041       .  S
N313        C321   1.360       .  A
N313       C1700   1.363       .  A
N314        C319   1.352       .  A
N314        C318   1.352       .  A
N314        H345   1.040       .  S
N315        C323   1.370       .  A
N315       C1702   1.366       .  A
C316        C324   1.383       .  A
C316        C332   1.396       .  A
C317        C333   1.401       .  A
C317        C325   1.388       .  A
C318        C326   1.383       .  A
C318        C335   1.405       .  A
C319        C334   1.415       .  A
C319        C327   1.389       .  A
C320       N1693   1.363   1_455  A
C320        C332   1.438       .  A
C320        C328   1.385       .  A
C321        C335   1.444       .  A
C321        C329   1.390       .  A
C322       N1695   1.366   1_455  A
C322        C330   1.381       .  A
C322        C333   1.447       .  A
C323        C331   1.387       .  A
C323        C334   1.450       .  A
C324        C325   1.373       .  A
C324        H336   1.083       .  S
C325        H337   1.083       .  S
C326        C327   1.374       .  A
C326        H338   1.083       .  S
C327        H339   1.082       .  S
C328       C1709   1.379   1_455  A
C328        H340   1.082       .  S
C329       C1708   1.379       .  A
C329        H341   1.082       .  S
C330       C1711   1.371   1_455  A
C330        H342   1.082       .  S
C331       C1710   1.371       .  A
C331        H343   1.062       .  S
N346        N347   1.311       .  A
N346        N352   1.306       .  A
N346       Mn375   2.161       .  S
N347        C354   1.350       .  A
N348        N350   1.305       .  A
N348        N349   1.307       .  A
N348      Mn1744   2.127       .  S
N349        C355   1.342       .  A
N350        N351   1.315       .  A
N350      Mn1755   2.159       .  S
N351        C355   1.356       .  A
N352        N353   1.311       .  A
N352       Mn364   2.136   1_455  S
N353        C354   1.348       .  A
C354        C640   1.431       .  S
C355        C502   1.426       .  S
N356        N362   1.301       .  A
N356        N357   1.307       .  A
N356      Mn1076   2.128       .  S
N357        C365   1.350       .  A
N358        N359   1.307       .  A
N358        N360   1.308       .  A
N359        C366   1.346       .  A
N360        N361   1.316       .  A
N360      Mn2456   2.137   1_455  S
N361        C366   1.345       .  A
N362        N363   1.305       .  A
N362      Mn1399   2.104       .  S
N363        C365   1.343       .  A
Mn364      N1728   2.127       .  S
Mn364      N1397   2.104       .  S
Mn364      Cl388   2.466       .  S
C365        C451   1.412       .  S
C366        C592   1.432       .  S
N367        N368   1.318       .  A
N367        N373   1.309       .  A
N367      Mn2445   2.164       .  S
N368        C376   1.350       .  A
N369        N371   1.305       .  A
N369        N370   1.306       .  A
N369      Mn1422   2.123   1_455  S
N370        C377   1.346       .  A
N371        N372   1.308       .  A
N371      Mn1065   2.138       .  S
N372        C377   1.350       .  A
N373        N374   1.306       .  A
N374        C376   1.340       .  A
Mn375      N1730   2.159   1_455  S
Mn375      N2437   2.164   1_445  S
Mn375      N1061   2.138   1_545  S
Mn375      Cl388   2.524   1_455  S
C376        C405   1.431       .  S
C377        C647   1.423       .  S
N378        N379   1.298       .  A
N378        N384   1.307       .  A
N378      Mn1766   2.122   1_455  S
N379        C389   1.348       .  A
N380        N381   1.304       .  A
N380        N382   1.309       .  A
N380       Mn387   2.126   1_556  S
N381        C390   1.344       .  A
N382        N383   1.305       .  A
N382       Mn386   2.097       .  S
N383        C390   1.334       .  A
N384        N385   1.308       .  A
N384      Mn1767   2.093   1_456  S
N385        C389   1.335       .  A
Mn386      N1046   2.128       .  S
Mn386      N2430   2.137       .  S
Mn386      N1758   2.122       .  S
Mn386     Cl2113   2.511   1_556  S
Mn387      N1404   2.123       .  S
Mn387      N1764   2.093   1_554  S
Mn387     Cl2113   2.473       .  S
Cl388     Mn2111   2.511       .  S
Cl388     Mn2112   2.473   1_545  S
C389        C546   1.417       .  S
C390        C396   1.396       .  S
C391        C392   1.551       .  S
C391        C397   1.566       .  S
C391        C395   1.514       .  S
C391        C436   1.563       .  S
C392        H399   1.085       .  S
C392        C393   1.393       .  D
C393        C573   1.557       .  S
C393        C394   1.557       .  S
C394        C398   1.546       .  S
C394        C396   1.515       .  S
C394        H400   1.107       .  S
C395        H401   1.088       .  S
C395        C396   1.336       .  D
C397        H402   1.084       .  S
C397        C398   1.380       .  D
C398        C483   1.524       .  S
C403        C404   1.526       .  S
C403        C409   1.561       .  S
C403        C407   1.548       .  S
C403        C435   1.568       .  S
C404        H411   1.087       .  S
C404        C405   1.356       .  D
C405        C406   1.522       .  S
C406        C410   1.533       .  S
C406        C408   1.546       .  S
C406        H412   1.102       .  S
C407        H413   1.085       .  S
C407        C408   1.390       .  D
C408        C679   1.540       .  S
C409        H414   1.084       .  S
C409        C410   1.369       .  D
C410        C484   1.508       .  S
N415        C419   1.365       .  A
N415        H447   1.037       .  S
N416        C423   1.352       .  A
N416        C424   1.348       .  A
N417        C421   1.367       .  A
N417        H448   1.035       .  S
N418        C425   1.350       .  A
N418        C426   1.350       .  A
C419        C427   1.386       .  A
C419        C435   1.439       .  A
C420        C436   1.444       .  A
C420        C428   1.390       .  A
C421        C429   1.375       .  A
C421        C438   1.444       .  A
C422        C437   1.456       .  A
C422        C430   1.384       .  A
C423        C435   1.414       .  A
C423        C431   1.385       .  A
C424        C438   1.409       .  A
C424        C432   1.387       .  A
C425        C433   1.382       .  A
C425        C436   1.410       .  A
C426        C434   1.390       .  A
C426        C437   1.423       .  A
C427        H439   1.082       .  S
C428        H440   1.082       .  S
C429        H441   1.074       .  S
C430        H442   1.060       .  S
C431        C432   1.371       .  A
C431        H443   1.082       .  S
C432        H444   1.083       .  S
C433        C434   1.375       .  A
C433        H445   1.083       .  S
C434        H446   1.083       .  S
C437        C548   1.551       .  S
C438        C650   1.509       .  S
C449        C450   1.513       .  S
C449        C455   1.566       .  S
C449        C453   1.550       .  S
C449        C574   1.580       .  S
C450        H457   1.085       .  S
C450        C451   1.359       .  D
C451        C452   1.501       .  S
C452        C456   1.547       .  S
C452        C454   1.552       .  S
C452        H458   1.107       .  S
C453        H459   1.086       .  S
C453        C454   1.389       .  D
C454        C482   1.546       .  S
C455        H460   1.085       .  S
C455        C456   1.381       .  D
C456        C528   1.521       .  S
N461        C466   1.357       .  A
N461        C465   1.358       .  A
N461        H493   1.041       .  S
N462       C1159   1.366       .  A
N462        C470   1.362       .  A
N463        C468   1.357       .  A
N463        C467   1.356       .  A
N463        H494   1.033       .  S
N464       C1161   1.370       .  A
N464        C472   1.368       .  A
C465        C473   1.386       .  A
C465        C481   1.421       .  A
C466        C482   1.420       .  A
C466        C474   1.387       .  A
C467        C475   1.387       .  A
C467        C484   1.418       .  A
C468        C483   1.420       .  A
C468        C476   1.388       .  A
C469       N1152   1.366       .  A
C469        C481   1.441       .  A
C469        C477   1.386       .  A
C470        C484   1.433       .  A
C470        C478   1.379       .  A
C471       N1154   1.370       .  A
C471        C479   1.387       .  A
C471        C482   1.454       .  A
C472        C480   1.381       .  A
C472        C483   1.448       .  A
C473        C474   1.373       .  A
C473        H485   1.083       .  S
C474        H486   1.083       .  S
C475        C476   1.371       .  A
C475        H487   1.082       .  S
C476        H488   1.082       .  S
C477       C1168   1.366   1_545  A
C477        H489   1.064       .  S
C478       C1167   1.366       .  A
C478        H490   1.076       .  S
C479       C1170   1.380   1_545  A
C479        H491   1.069       .  S
C480       C1169   1.380       .  A
C480        H492   1.078       .  S
C481        C500   1.536       .  S
C495        C496   1.565       .  S
C495        C501   1.513       .  S
C495        C499   1.541       .  S
C495        C680   1.562       .  S
C496        H503   1.085       .  S
C496        C497   1.379       .  D
C497        C529   1.525       .  S
C497        C498   1.547       .  S
C498        C502   1.520       .  S
C498        C500   1.556       .  S
C498        H504   1.106       .  S
C499        H505   1.086       .  S
C499        C500   1.384       .  D
C501        H506   1.087       .  S
C501        C502   1.348       .  D
N507        C512   1.354       .  A
N507        C511   1.354       .  A
N507        H539   1.038       .  S
N508        C516   1.364       .  A
N509        C514   1.360       .  A
N509        C513   1.361       .  A
N509        H540   1.036       .  S
N510        C518   1.366       .  A
C511        C519   1.386       .  A
C511        C527   1.415       .  A
C512        C528   1.411       .  A
C512        C520   1.386       .  A
C513        C521   1.387       .  A
C513        C530   1.425       .  A
C514        C529   1.427       .  A
C514        C522   1.389       .  A
C515        C527   1.446       .  A
C515        C523   1.388       .  A
C516        C530   1.438       .  A
C516        C524   1.386       .  A
C517        C525   1.385       .  A
C517        C528   1.446       .  A
C518        C526   1.387       .  A
C518        C529   1.447       .  A
C519        C520   1.372       .  A
C519        H531   1.082       .  S
C520        H532   1.083       .  S
C521        C522   1.374       .  A
C521        H533   1.082       .  S
C522        H534   1.082       .  S
C523        H535   1.082       .  S
C524        H536   1.081       .  S
C525        H537   1.080       .  S
C526        H538   1.081       .  S
C527        C587   1.568       .  S
C530        C638   1.519       .  S
C541        C542   1.578       .  S
C541        C547   1.539       .  S
C541        C545   1.496       .  S
C541        C619   1.568       .  S
C542        H549   1.085       .  S
C542        C543   1.388       .  D
C543        C576   1.543       .  S
C543        C544   1.549       .  S
C544        C548   1.565       .  S
C544        C546   1.527       .  S
C544        H550   1.103       .  S
C545        H551   1.086       .  S
C545        C546   1.337       .  D
C547        H552   1.085       .  S
C547        C548   1.388       .  D
N553        C558   1.353       .  A
N553        C557   1.354       .  A
N553        H585   1.042       .  S
N554        C561   1.377       .  A
N554       C1942   1.371       .  A
N555        C560   1.362       .  A
N555        C559   1.361       .  A
N555        H586   1.038       .  S
N556        C563   1.370       .  A
N556       C1944   1.373       .  A
C557        C565   1.388       .  A
C557        C573   1.415       .  A
C558        C574   1.409       .  A
C558        C566   1.385       .  A
C559        C567   1.387       .  A
C559        C576   1.424       .  A
C560        C575   1.432       .  A
C560        C568   1.388       .  A
C561        C573   1.458       .  A
C561        C569   1.385       .  A
C562       N1934   1.371   1_455  A
C562        C576   1.458       .  A
C562        C570   1.382       .  A
C563        C571   1.383       .  A
C563        C574   1.453       .  A
C564       N1936   1.373       .  A
C564        C572   1.387       .  A
C564        C575   1.455       .  A
C565        C566   1.373       .  A
C565        H577   1.083       .  S
C566        H578   1.083       .  S
C567        C568   1.376       .  A
C567        H579   1.082       .  S
C568        H580   1.083       .  S
C569       C1950   1.386       .  A
C569        H581   1.073       .  S
C570       C1949   1.386   1_455  A
C570        H582   1.072       .  S
C571       C1952   1.375       .  A
C571        H583   1.082       .  S
C572       C1951   1.375   1_455  A
C572        H584   1.065       .  S
C575        C589   1.559       .  S
C587        C588   1.550       .  S
C587        C593   1.561       .  S
C587        C591   1.520       .  S
C588        H595   1.085       .  S
C588        C589   1.387       .  D
C589        C590   1.566       .  S
C590        C594   1.553       .  S
C590        C592   1.529       .  S
C590        H596   1.104       .  S
C591        H597   1.087       .  S
C591        C592   1.352       .  D
C593        H598   1.085       .  S
C593        C594   1.372       .  D
C594        C622   1.522       .  S
N599        C604   1.350       .  A
N599        C603   1.350       .  A
N599        H631   1.036       .  S
N600       C1297   1.362   1_545  A
N600        C608   1.366       .  A
N601        C606   1.353       .  A
N601        C605   1.357       .  A
N601        H632   1.036       .  S
N602       C1299   1.368   1_545  A
N602        C610   1.367       .  A
C603        C611   1.383       .  A
C603        C619   1.403       .  A
C604        C620   1.413       .  A
C604        C612   1.389       .  A
C605        C613   1.383       .  A
C605        C622   1.411       .  A
C606        C621   1.424       .  A
C606        C614   1.391       .  A
C607       N1290   1.362       .  A
C607        C619   1.456       .  A
C607        C615   1.393       .  A
C608        C622   1.435       .  A
C608        C616   1.383       .  A
C609       N1292   1.368       .  A
C609        C617   1.376       .  A
C609        C620   1.442       .  A
C610        C618   1.381       .  A
C610        C621   1.444       .  A
C611        C612   1.373       .  A
C611        H623   1.083       .  S
C612        H624   1.083       .  S
C613        C614   1.374       .  A
C613        H625   1.083       .  S
C614        H626   1.082       .  S
C615       C1306   1.381       .  A
C615        H627   1.082       .  S
C616       C1305   1.381   1_545  A
C616        H628   1.082       .  S
C617       C1308   1.366       .  A
C617        H629   1.065       .  S
C618       C1307   1.366   1_545  A
C618        H630   1.065       .  S
C620        C652   1.527       .  S
C621        C635   1.530       .  S
C633        C634   1.533       .  S
C633        C639   1.515       .  S
C633        C637   1.569       .  S
C633        C677   1.557       .  S
C634        H641   1.086       .  S
C634        C635   1.379       .  D
C635        C636   1.554       .  S
C636        C640   1.525       .  S
C636        C638   1.541       .  S
C636        H642   1.107       .  S
C637        H643   1.085       .  S
C637        C638   1.381       .  D
C639        H644   1.088       .  S
C639        C640   1.353       .  D
C645        C646   1.512       .  S
C645        C651   1.540       .  S
C645        C649   1.561       .  S
C645        C678   1.562       .  S
C646        H653   1.085       .  S
C646        C647   1.355       .  D
C647        C648   1.512       .  S
C648        C652   1.548       .  S
C648        C650   1.546       .  S
C648        H654   1.108       .  S
C649        H655   1.085       .  S
C649        C650   1.373       .  D
C651        H656   1.086       .  S
C651        C652   1.382       .  D
N657        C662   1.345       .  A
N657        C661   1.348       .  A
N657        H689   1.041       .  S
N658       C2045   1.363       .  A
N658        C666   1.360       .  A
N659        C664   1.352       .  A
N659        C663   1.352       .  A
N659        H690   1.040       .  S
N660       C2047   1.366       .  A
N660        C668   1.370       .  A
C661        C669   1.383       .  A
C661        C677   1.396       .  A
C662        C678   1.401       .  A
C662        C670   1.388       .  A
C663        C671   1.383       .  A
C663        C680   1.405       .  A
C664        C679   1.415       .  A
C664        C672   1.389       .  A
C665       N2038   1.363   1_455  A
C665        C677   1.438       .  A
C665        C673   1.385       .  A
C666        C680   1.444       .  A
C666        C674   1.390       .  A
C667       N2040   1.366   1_455  A
C667        C675   1.381       .  A
C667        C678   1.447       .  A
C668        C676   1.387       .  A
C668        C679   1.450       .  A
C669        C670   1.373       .  A
C669        H681   1.083       .  S
C670        H682   1.083       .  S
C671        C672   1.374       .  A
C671        H683   1.083       .  S
C672        H684   1.082       .  S
C673       C2054   1.379   1_455  A
C673        H685   1.082       .  S
C674       C2053   1.379       .  A
C674        H686   1.082       .  S
C675       C2056   1.371   1_455  A
C675        H687   1.082       .  S
C676       C2055   1.371       .  A
C676        H688   1.062       .  S
N691        N692   1.311       .  A
N691        N697   1.306       .  A
N691       Mn720   2.161       .  S
N692        C699   1.350       .  A
N693        N695   1.305       .  A
N693        N694   1.307       .  A
N693      Mn2089   2.127   1_554  S
N694        C700   1.342       .  A
N695        N696   1.315       .  A
N695      Mn2100   2.159       .  S
N696        C700   1.356       .  A
N697        N698   1.311       .  A
N697       Mn709   2.136   1_454  S
N698        C699   1.348       .  A
C699        C985   1.431       .  S
C700        C847   1.426       .  S
N701        N707   1.301       .  A
N701        N702   1.307       .  A
N702        C710   1.350       .  A
N703        N704   1.307       .  A
N703        N705   1.308       .  A
N703      Mn1054   2.150   1_455  S
N704        C711   1.346       .  A
N705        N706   1.316       .  A
N705      Mn1421   2.137   1_455  S
N706        C711   1.345       .  A
N707        N708   1.305       .  A
N707      Mn2434   2.104       .  S
N708        C710   1.343       .  A
Mn709      N2073   2.127   1_556  S
Mn709      N1048   2.150   1_655  S
Mn709      N2432   2.104       .  S
Mn709      Cl733   2.466   1_556  S
C710        C796   1.412       .  S
C711        C937   1.432       .  S
N712        N713   1.318       .  A
N712        N718   1.309       .  A
N712      Mn1410   2.164   1_565  S
N713        C721   1.350       .  A
N714        N716   1.305       .  A
N714        N715   1.306       .  A
N714      Mn2457   2.123   1_455  S
N715        C722   1.346       .  A
N716        N717   1.308       .  A
N717        C722   1.350       .  A
N718        N719   1.306       .  A
N718      Mn1077   2.126       .  S
N719        C721   1.340       .  A
Mn720      N2075   2.159   1_455  S
Mn720      N1402   2.164   1_455  S
Mn720      Cl733   2.524   1_455  S
C721        C750   1.431       .  S
C722        C992   1.423       .  S
N723        N724   1.298       .  A
N723        N729   1.307       .  A
N723      Mn2111   2.122   1_465  S
N724        C734   1.348       .  A
N725        N726   1.304       .  A
N725        N727   1.309       .  A
N725       Mn732   2.126       .  S
N726        C735   1.344       .  A
N727        N728   1.305       .  A
N727       Mn731   2.097   1_565  S
N728        C735   1.334       .  A
N729        N730   1.308       .  A
N729      Mn2112   2.093   1_455  S
N730        C734   1.335       .  A
Mn731      N1395   2.137       .  S
Mn731      N2103   2.122   1_545  S
Mn731     Cl1768   2.511       .  S
Mn732      N2439   2.123       .  S
Mn732      N1063   2.126       .  S
Mn732      N2109   2.093       .  S
Mn732     Cl1768   2.473   1_565  S
Cl733     Mn1766   2.511   1_554  S
Cl733     Mn1767   2.473       .  S
C734        C891   1.417       .  S
C735        C741   1.396       .  S
C736        C737   1.551       .  S
C736        C742   1.566       .  S
C736        C740   1.514       .  S
C736        C781   1.563       .  S
C737        H744   1.085       .  S
C737        C738   1.393       .  D
C738        C918   1.557       .  S
C738        C739   1.557       .  S
C739        C743   1.546       .  S
C739        C741   1.515       .  S
C739        H745   1.107       .  S
C740        H746   1.088       .  S
C740        C741   1.336       .  D
C742        H747   1.084       .  S
C742        C743   1.380       .  D
C743        C828   1.524       .  S
C748        C749   1.526       .  S
C748        C754   1.561       .  S
C748        C752   1.548       .  S
C748        C780   1.568       .  S
C749        H756   1.087       .  S
C749        C750   1.356       .  D
C750        C751   1.522       .  S
C751        C755   1.533       .  S
C751        C753   1.546       .  S
C751        H757   1.102       .  S
C752        H758   1.085       .  S
C752        C753   1.390       .  D
C753       C1024   1.540       .  S
C754        H759   1.084       .  S
C754        C755   1.369       .  D
C755        C829   1.507       .  S
N760       C1110   1.361   1_554  A
N760        C764   1.365       .  A
N760        H792   1.037       .  S
N761        C768   1.352       .  A
N761        C769   1.348       .  A
N762       C1112   1.377       .  A
N762        C766   1.367   1_556  A
N762        H793   1.035       .  S
N763        C770   1.350       .  A
N763        C771   1.350       .  A
C764        C772   1.386       .  A
C764        C780   1.439       .  A
C765       N1105   1.361       .  A
C765        C781   1.444       .  A
C765        C773   1.390       .  A
C766        C774   1.375       .  A
C766        C783   1.444       .  A
C767       N1107   1.377       .  A
C767        C782   1.456       .  A
C767        C775   1.384       .  A
C768        C780   1.414       .  A
C768        C776   1.385       .  A
C769        C783   1.409       .  A
C769        C777   1.387       .  A
C770        C778   1.382       .  A
C770        C781   1.410       .  A
C771        C779   1.390       .  A
C771        C782   1.423       .  A
C772       C1118   1.382   1_554  A
C772        H784   1.082       .  S
C773       C1117   1.382       .  A
C773        H785   1.082       .  S
C774       C1120   1.372   1_554  A
C774        H786   1.074       .  S
C775       C1119   1.372       .  A
C775        H787   1.060       .  S
C776        C777   1.371       .  A
C776        H788   1.082       .  S
C777        H789   1.083       .  S
C778        C779   1.375       .  A
C778        H790   1.083       .  S
C779        H791   1.083       .  S
C782        C893   1.551       .  S
C783        C995   1.509       .  S
C794        C795   1.513       .  S
C794        C800   1.566       .  S
C794        C798   1.550       .  S
C794        C919   1.580       .  S
C795        H802   1.085       .  S
C795        C796   1.359       .  D
C796        C797   1.501       .  S
C797        C801   1.547       .  S
C797        C799   1.552       .  S
C797        H803   1.107       .  S
C798        H804   1.086       .  S
C798        C799   1.389       .  D
C799        C827   1.546       .  S
C800        H805   1.085       .  S
C800        C801   1.381       .  D
C801        C873   1.521       .  S
N806        C811   1.357       .  A
N806        C810   1.358       .  A
N806        H838   1.041       .  S
N807        C815   1.362   1_545  A
N808        C813   1.357       .  A
N808        C812   1.356       .  A
N808        H839   1.033       .  S
N809        C817   1.368   1_545  A
C810        C818   1.386       .  A
C810        C826   1.421       .  A
C811        C827   1.420       .  A
C811        C819   1.387       .  A
C812        C820   1.387       .  A
C812        C829   1.418       .  A
C813        C828   1.420       .  A
C813        C821   1.388       .  A
C814        C826   1.441       .  A
C814        C822   1.386       .  A
C815        C829   1.433       .  A
C815        C823   1.379       .  A
C816        C824   1.387       .  A
C816        C827   1.454       .  A
C817        C825   1.381       .  A
C817        C828   1.448       .  A
C818        C819   1.373       .  A
C818        H830   1.083       .  S
C819        H831   1.083       .  S
C820        C821   1.371       .  A
C820        H832   1.082       .  S
C821        H833   1.082       .  S
C822        H834   1.064       .  S
C823        H835   1.076       .  S
C824        H836   1.069       .  S
C825        H837   1.079       .  S
C826        C845   1.536       .  S
C840        C841   1.565       .  S
C840        C846   1.513       .  S
C840        C844   1.541       .  S
C840       C1025   1.562       .  S
C841        H848   1.085       .  S
C841        C842   1.379       .  D
C842        C874   1.525       .  S
C842        C843   1.547       .  S
C843        C847   1.520       .  S
C843        C845   1.556       .  S
C843        H849   1.106       .  S
C844        H850   1.086       .  S
C844        C845   1.384       .  D
C846        H851   1.087       .  S
C846        C847   1.348       .  D
N852        C857   1.354       .  A
N852        C856   1.354       .  A
N852        H884   1.038       .  S
N853       C1205   1.364   1_554  A
N853        C861   1.364       .  A
N854        C859   1.360       .  A
N854        C858   1.361       .  A
N854        H885   1.036       .  S
N855       C1207   1.368   1_554  A
N855        C863   1.366       .  A
C856        C864   1.386       .  A
C856        C872   1.415       .  A
C857        C873   1.411       .  A
C857        C865   1.386       .  A
C858        C866   1.387       .  A
C858        C875   1.425       .  A
C859        C874   1.427       .  A
C859        C867   1.389       .  A
C860       N1198   1.364       .  A
C860        C872   1.446       .  A
C860        C868   1.388       .  A
C861        C875   1.438       .  A
C861        C869   1.386       .  A
C862       N1200   1.368       .  A
C862        C870   1.385       .  A
C862        C873   1.446       .  A
C863        C871   1.387       .  A
C863        C874   1.447       .  A
C864        C865   1.372       .  A
C864        H876   1.082       .  S
C865        H877   1.083       .  S
C866        C867   1.374       .  A
C866        H878   1.082       .  S
C867        H879   1.082       .  S
C868       C1214   1.379       .  A
C868        H880   1.082       .  S
C869       C1213   1.379   1_554  A
C869        H881   1.081       .  S
C870       C1216   1.385       .  A
C870        H882   1.080       .  S
C871       C1215   1.385   1_554  A
C871        H883   1.081       .  S
C872        C932   1.568       .  S
C875        C983   1.519       .  S
C886        C887   1.578       .  S
C886        C892   1.539       .  S
C886        C890   1.496       .  S
C886        C964   1.568       .  S
C887        H894   1.085       .  S
C887        C888   1.388       .  D
C888        C921   1.543       .  S
C888        C889   1.549       .  S
C889        C893   1.565       .  S
C889        C891   1.527       .  S
C889        H895   1.103       .  S
C890        H896   1.086       .  S
C890        C891   1.337       .  D
C892        H897   1.085       .  S
C892        C893   1.388       .  D
N898        C903   1.353       .  A
N898        C902   1.354       .  A
N898        H930   1.042       .  S
N899        C906   1.377       .  A
N899       C2287   1.371       .  A
N900        C905   1.362       .  A
N900        C904   1.361       .  A
N900        H931   1.038       .  S
N901        C908   1.370       .  A
N901       C2289   1.373       .  A
C902        C910   1.388       .  A
C902        C918   1.415       .  A
C903        C919   1.409       .  A
C903        C911   1.385       .  A
C904        C912   1.387       .  A
C904        C921   1.424       .  A
C905        C920   1.432       .  A
C905        C913   1.388       .  A
C906        C918   1.458       .  A
C906        C914   1.385       .  A
C907       N2279   1.371   1_455  A
C907        C921   1.458       .  A
C907        C915   1.382       .  A
C908        C916   1.383       .  A
C908        C919   1.453       .  A
C909       N2281   1.373       .  A
C909        C917   1.387       .  A
C909        C920   1.455       .  A
C910        C911   1.373       .  A
C910        H922   1.083       .  S
C911        H923   1.083       .  S
C912        C913   1.376       .  A
C912        H924   1.082       .  S
C913        H925   1.083       .  S
C914       C2295   1.386       .  A
C914        H926   1.073       .  S
C915       C2294   1.386   1_455  A
C915        H927   1.072       .  S
C916       C2297   1.375       .  A
C916        H928   1.082       .  S
C917       C2296   1.375   1_455  A
C917        H929   1.065       .  S
C920        C934   1.559       .  S
C932        C933   1.550       .  S
C932        C938   1.561       .  S
C932        C936   1.520       .  S
C933        H940   1.085       .  S
C933        C934   1.387       .  D
C934        C935   1.566       .  S
C935        C939   1.553       .  S
C935        C937   1.529       .  S
C935        H941   1.104       .  S
C936        H942   1.087       .  S
C936        C937   1.352       .  D
C938        H943   1.085       .  S
C938        C939   1.372       .  D
C939        C967   1.522       .  S
N944        C949   1.350       .  A
N944        C948   1.350       .  A
N944        H976   1.036       .  S
N945        C953   1.366       .  A
N946        C951   1.353       .  A
N946        C950   1.357       .  A
N946        H977   1.036       .  S
N947        C955   1.367       .  A
C948        C956   1.383       .  A
C948        C964   1.403       .  A
C949        C965   1.413       .  A
C949        C957   1.389       .  A
C950        C958   1.383       .  A
C950        C967   1.411       .  A
C951        C966   1.424       .  A
C951        C959   1.391       .  A
C952        C964   1.456       .  A
C952        C960   1.393       .  A
C953        C967   1.435       .  A
C953        C961   1.383       .  A
C954        C962   1.376       .  A
C954        C965   1.442       .  A
C955        C963   1.381       .  A
C955        C966   1.444       .  A
C956        C957   1.373       .  A
C956        H968   1.083       .  S
C957        H969   1.083       .  S
C958        C959   1.374       .  A
C958        H970   1.083       .  S
C959        H971   1.082       .  S
C960        H972   1.082       .  S
C961        H973   1.082       .  S
C962        H974   1.065       .  S
C963        H975   1.065       .  S
C965        C997   1.527       .  S
C966        C980   1.530       .  S
C978        C979   1.533       .  S
C978        C984   1.515       .  S
C978        C982   1.569       .  S
C978       C1022   1.557       .  S
C979        H986   1.086       .  S
C979        C980   1.379       .  D
C980        C981   1.554       .  S
C981        C985   1.525       .  S
C981        C983   1.541       .  S
C981        H987   1.107       .  S
C982        H988   1.085       .  S
C982        C983   1.381       .  D
C984        H989   1.088       .  S
C984        C985   1.353       .  D
C990        C991   1.512       .  S
C990        C996   1.540       .  S
C990        C994   1.561       .  S
C990       C1023   1.562       .  S
C991        H998   1.085       .  S
C991        C992   1.355       .  D
C992        C993   1.512       .  S
C993        C997   1.548       .  S
C993        C995   1.546       .  S
C993        H999   1.108       .  S
C994       H1000   1.085       .  S
C994        C995   1.373       .  D
C996       H1001   1.086       .  S
C996        C997   1.382       .  D
N1002      C1007   1.345       .  A
N1002      C1006   1.348       .  A
N1002      H1034   1.041       .  S
N1003      C2390   1.363       .  A
N1003      C1011   1.360       .  A
N1004      C1009   1.352       .  A
N1004      C1008   1.352       .  A
N1004      H1035   1.040       .  S
N1005      C2392   1.366       .  A
N1005      C1013   1.370       .  A
C1006      C1014   1.383       .  A
C1006      C1022   1.396       .  A
C1007      C1023   1.401       .  A
C1007      C1015   1.388       .  A
C1008      C1016   1.383       .  A
C1008      C1025   1.405       .  A
C1009      C1024   1.415       .  A
C1009      C1017   1.389       .  A
C1010      N2383   1.363   1_455  A
C1010      C1022   1.438       .  A
C1010      C1018   1.385       .  A
C1011      C1025   1.444       .  A
C1011      C1019   1.390       .  A
C1012      N2385   1.366   1_455  A
C1012      C1020   1.381       .  A
C1012      C1023   1.447       .  A
C1013      C1021   1.387       .  A
C1013      C1024   1.450       .  A
C1014      C1015   1.373       .  A
C1014      H1026   1.083       .  S
C1015      H1027   1.083       .  S
C1016      C1017   1.374       .  A
C1016      H1028   1.083       .  S
C1017      H1029   1.082       .  S
C1018      C2399   1.379   1_455  A
C1018      H1030   1.082       .  S
C1019      C2398   1.379       .  A
C1019      H1031   1.082       .  S
C1020      C2401   1.371   1_455  A
C1020      H1032   1.082       .  S
C1021      C2400   1.371       .  A
C1021      H1033   1.062       .  S
N1036      N1037   1.311       .  A
N1036      N1042   1.306       .  A
N1036     Mn1065   2.161       .  S
N1037      C1044   1.350       .  A
N1038      N1040   1.305       .  A
N1038      N1039   1.307       .  A
N1038     Mn2434   2.127       .  S
N1039      C1045   1.342       .  A
N1040      N1041   1.315       .  A
N1040     Mn2445   2.159       .  S
N1041      C1045   1.356       .  A
N1042      N1043   1.311       .  A
N1042     Mn1054   2.136   1_455  S
N1043      C1044   1.348       .  A
C1044      C1330   1.431       .  S
C1045      C1192   1.426       .  S
N1046      N1052   1.301       .  A
N1046      N1047   1.307       .  A
N1047      C1055   1.350       .  A
N1048      N1049   1.307       .  A
N1048      N1050   1.308       .  A
N1049      C1056   1.346       .  A
N1050      N1051   1.316       .  A
N1050     Mn1766   2.137   1_455  S
N1051      C1056   1.345       .  A
N1052      N1053   1.305       .  A
N1052     Mn2089   2.104       .  S
N1053      C1055   1.343       .  A
Mn1054     N2418   2.127       .  S
Mn1054     N2087   2.104       .  S
Mn1054    Cl1078   2.466       .  S
C1055      C1141   1.412       .  S
C1056      C1282   1.432       .  S
N1057      N1058   1.318       .  A
N1057      N1063   1.309       .  A
N1057     Mn1755   2.164   1_565  S
N1058      C1066   1.350       .  A
N1059      N1061   1.305       .  A
N1059      N1060   1.306       .  A
N1059     Mn2112   2.123   1_455  S
N1060      C1067   1.346       .  A
N1061      N1062   1.308       .  A
N1062      C1067   1.350       .  A
N1063      N1064   1.306       .  A
N1064      C1066   1.340       .  A
Mn1065     N2420   2.159   1_455  S
Mn1065     N1747   2.164   1_455  S
Mn1065    Cl1078   2.524   1_455  S
C1066      C1095   1.431       .  S
C1067      C1337   1.423       .  S
N1068      N1069   1.298       .  A
N1068      N1074   1.307       .  A
N1068     Mn2456   2.122   1_465  S
N1069      C1079   1.348       .  A
N1070      N1071   1.304       .  A
N1070      N1072   1.309       .  A
N1070     Mn1077   2.126   1_556  S
N1071      C1080   1.344       .  A
N1072      N1073   1.305       .  A
N1072     Mn1076   2.097   1_565  S
N1073      C1080   1.334       .  A
N1074      N1075   1.308       .  A
N1074     Mn2457   2.093   1_456  S
N1075      C1079   1.335       .  A
Mn1076     N1740   2.137       .  S
Mn1076     N2448   2.122   1_545  S
Mn1076    Cl1423   2.511   1_556  S
Mn1077     N2094   2.123       .  S
Mn1077     N2454   2.093   1_554  S
Mn1077    Cl1423   2.473   1_565  S
Cl1078    Mn1421   2.511       .  S
Cl1078    Mn1422   2.473       .  S
C1079      C1236   1.417       .  S
C1080      C1086   1.396       .  S
C1081      C1082   1.551       .  S
C1081      C1087   1.566       .  S
C1081      C1085   1.514       .  S
C1081      C1126   1.563       .  S
C1082      H1089   1.085       .  S
C1082      C1083   1.393       .  D
C1083      C1263   1.557       .  S
C1083      C1084   1.557       .  S
C1084      C1088   1.546       .  S
C1084      C1086   1.515       .  S
C1084      H1090   1.107       .  S
C1085      H1091   1.088       .  S
C1085      C1086   1.336       .  D
C1087      H1092   1.084       .  S
C1087      C1088   1.380       .  D
C1088      C1173   1.524       .  S
C1093      C1094   1.526       .  S
C1093      C1099   1.561       .  S
C1093      C1097   1.548       .  S
C1093      C1125   1.568       .  S
C1094      H1101   1.087       .  S
C1094      C1095   1.356       .  D
C1095      C1096   1.522       .  S
C1096      C1100   1.533       .  S
C1096      C1098   1.546       .  S
C1096      H1102   1.102       .  S
C1097      H1103   1.085       .  S
C1097      C1098   1.390       .  D
C1098      C1369   1.540       .  S
C1099      H1104   1.084       .  S
C1099      C1100   1.369       .  D
C1100      C1174   1.507       .  S
N1105      C1109   1.365       .  A
N1105      H1137   1.037       .  S
N1106      C1113   1.352       .  A
N1106      C1114   1.348       .  A
N1107      C1111   1.367       .  A
N1107      H1138   1.035       .  S
N1108      C1115   1.350       .  A
N1108      C1116   1.350       .  A
C1109      C1117   1.386       .  A
C1109      C1125   1.439       .  A
C1110      C1126   1.444       .  A
C1110      C1118   1.390       .  A
C1111      C1119   1.375       .  A
C1111      C1128   1.444       .  A
C1112      C1127   1.456       .  A
C1112      C1120   1.384       .  A
C1113      C1125   1.414       .  A
C1113      C1121   1.385       .  A
C1114      C1128   1.409       .  A
C1114      C1122   1.387       .  A
C1115      C1123   1.382       .  A
C1115      C1126   1.410       .  A
C1116      C1124   1.390       .  A
C1116      C1127   1.423       .  A
C1117      H1129   1.082       .  S
C1118      H1130   1.082       .  S
C1119      H1131   1.074       .  S
C1120      H1132   1.060       .  S
C1121      C1122   1.371       .  A
C1121      H1133   1.082       .  S
C1122      H1134   1.083       .  S
C1123      C1124   1.375       .  A
C1123      H1135   1.083       .  S
C1124      H1136   1.083       .  S
C1127      C1238   1.551       .  S
C1128      C1340   1.509       .  S
C1139      C1140   1.513       .  S
C1139      C1145   1.566       .  S
C1139      C1143   1.550       .  S
C1139      C1264   1.580       .  S
C1140      H1147   1.085       .  S
C1140      C1141   1.359       .  D
C1141      C1142   1.501       .  S
C1142      C1146   1.547       .  S
C1142      C1144   1.552       .  S
C1142      H1148   1.107       .  S
C1143      H1149   1.086       .  S
C1143      C1144   1.389       .  D
C1144      C1172   1.546       .  S
C1145      H1150   1.085       .  S
C1145      C1146   1.381       .  D
C1146      C1218   1.521       .  S
N1151      C1156   1.357       .  A
N1151      C1155   1.358       .  A
N1151      H1183   1.041       .  S
N1152      C1160   1.362   1_545  A
N1153      C1158   1.357       .  A
N1153      C1157   1.356       .  A
N1153      H1184   1.033       .  S
N1154      C1162   1.368   1_545  A
C1155      C1163   1.386       .  A
C1155      C1171   1.421       .  A
C1156      C1172   1.420       .  A
C1156      C1164   1.387       .  A
C1157      C1165   1.387       .  A
C1157      C1174   1.418       .  A
C1158      C1173   1.420       .  A
C1158      C1166   1.388       .  A
C1159      C1171   1.441       .  A
C1159      C1167   1.386       .  A
C1160      C1174   1.433       .  A
C1160      C1168   1.379       .  A
C1161      C1169   1.387       .  A
C1161      C1172   1.454       .  A
C1162      C1170   1.381       .  A
C1162      C1173   1.448       .  A
C1163      C1164   1.373       .  A
C1163      H1175   1.083       .  S
C1164      H1176   1.083       .  S
C1165      C1166   1.371       .  A
C1165      H1177   1.082       .  S
C1166      H1178   1.082       .  S
C1167      H1179   1.064       .  S
C1168      H1180   1.076       .  S
C1169      H1181   1.069       .  S
C1170      H1182   1.079       .  S
C1171      C1190   1.536       .  S
C1185      C1186   1.565       .  S
C1185      C1191   1.513       .  S
C1185      C1189   1.541       .  S
C1185      C1370   1.562       .  S
C1186      H1193   1.085       .  S
C1186      C1187   1.379       .  D
C1187      C1219   1.525       .  S
C1187      C1188   1.547       .  S
C1188      C1192   1.520       .  S
C1188      C1190   1.556       .  S
C1188      H1194   1.106       .  S
C1189      H1195   1.086       .  S
C1189      C1190   1.384       .  D
C1191      H1196   1.087       .  S
C1191      C1192   1.348       .  D
N1197      C1202   1.354       .  A
N1197      C1201   1.354       .  A
N1197      H1229   1.038       .  S
N1198      C1206   1.364       .  A
N1199      C1204   1.360       .  A
N1199      C1203   1.361       .  A
N1199      H1230   1.036       .  S
N1200      C1208   1.366       .  A
C1201      C1209   1.386       .  A
C1201      C1217   1.415       .  A
C1202      C1218   1.411       .  A
C1202      C1210   1.386       .  A
C1203      C1211   1.387       .  A
C1203      C1220   1.425       .  A
C1204      C1219   1.427       .  A
C1204      C1212   1.389       .  A
C1205      C1217   1.446       .  A
C1205      C1213   1.388       .  A
C1206      C1220   1.438       .  A
C1206      C1214   1.386       .  A
C1207      C1215   1.385       .  A
C1207      C1218   1.446       .  A
C1208      C1216   1.387       .  A
C1208      C1219   1.447       .  A
C1209      C1210   1.372       .  A
C1209      H1221   1.082       .  S
C1210      H1222   1.083       .  S
C1211      C1212   1.374       .  A
C1211      H1223   1.082       .  S
C1212      H1224   1.082       .  S
C1213      H1225   1.082       .  S
C1214      H1226   1.081       .  S
C1215      H1227   1.080       .  S
C1216      H1228   1.081       .  S
C1217      C1277   1.568       .  S
C1220      C1328   1.519       .  S
C1231      C1232   1.578       .  S
C1231      C1237   1.539       .  S
C1231      C1235   1.496       .  S
C1231      C1309   1.568       .  S
C1232      H1239   1.085       .  S
C1232      C1233   1.388       .  D
C1233      C1266   1.543       .  S
C1233      C1234   1.549       .  S
C1234      C1238   1.565       .  S
C1234      C1236   1.527       .  S
C1234      H1240   1.103       .  S
C1235      H1241   1.086       .  S
C1235      C1236   1.337       .  D
C1237      H1242   1.085       .  S
C1237      C1238   1.388       .  D
N1243      C1248   1.353       .  A
N1243      C1247   1.354       .  A
N1243      H1275   1.042       .  S
N1244      C1251   1.377       .  A
N1244      C2632   1.371       .  A
N1245      C1250   1.362       .  A
N1245      C1249   1.361       .  A
N1245      H1276   1.038       .  S
N1246      C1253   1.370       .  A
N1246      C2634   1.373       .  A
C1247      C1255   1.388       .  A
C1247      C1263   1.415       .  A
C1248      C1264   1.409       .  A
C1248      C1256   1.385       .  A
C1249      C1257   1.387       .  A
C1249      C1266   1.424       .  A
C1250      C1265   1.432       .  A
C1250      C1258   1.388       .  A
C1251      C1263   1.458       .  A
C1251      C1259   1.385       .  A
C1252      N2624   1.371   1_455  A
C1252      C1266   1.458       .  A
C1252      C1260   1.382       .  A
C1253      C1261   1.383       .  A
C1253      C1264   1.453       .  A
C1254      N2626   1.373       .  A
C1254      C1262   1.387       .  A
C1254      C1265   1.455       .  A
C1255      C1256   1.373       .  A
C1255      H1267   1.083       .  S
C1256      H1268   1.083       .  S
C1257      C1258   1.376       .  A
C1257      H1269   1.082       .  S
C1258      H1270   1.083       .  S
C1259      C2640   1.386       .  A
C1259      H1271   1.073       .  S
C1260      C2639   1.386   1_455  A
C1260      H1272   1.072       .  S
C1261      C2642   1.375       .  A
C1261      H1273   1.082       .  S
C1262      C2641   1.375   1_455  A
C1262      H1274   1.065       .  S
C1265      C1279   1.559       .  S
C1277      C1278   1.550       .  S
C1277      C1283   1.561       .  S
C1277      C1281   1.520       .  S
C1278      H1285   1.085       .  S
C1278      C1279   1.387       .  D
C1279      C1280   1.566       .  S
C1280      C1284   1.553       .  S
C1280      C1282   1.529       .  S
C1280      H1286   1.104       .  S
C1281      H1287   1.087       .  S
C1281      C1282   1.352       .  D
C1283      H1288   1.085       .  S
C1283      C1284   1.372       .  D
C1284      C1312   1.522       .  S
N1289      C1294   1.350       .  A
N1289      C1293   1.350       .  A
N1289      H1321   1.036       .  S
N1290      C1298   1.366       .  A
N1291      C1296   1.353       .  A
N1291      C1295   1.357       .  A
N1291      H1322   1.036       .  S
N1292      C1300   1.367       .  A
C1293      C1301   1.383       .  A
C1293      C1309   1.403       .  A
C1294      C1310   1.413       .  A
C1294      C1302   1.389       .  A
C1295      C1303   1.383       .  A
C1295      C1312   1.411       .  A
C1296      C1311   1.424       .  A
C1296      C1304   1.391       .  A
C1297      C1309   1.456       .  A
C1297      C1305   1.393       .  A
C1298      C1312   1.435       .  A
C1298      C1306   1.383       .  A
C1299      C1307   1.376       .  A
C1299      C1310   1.442       .  A
C1300      C1308   1.381       .  A
C1300      C1311   1.444       .  A
C1301      C1302   1.373       .  A
C1301      H1313   1.083       .  S
C1302      H1314   1.083       .  S
C1303      C1304   1.374       .  A
C1303      H1315   1.083       .  S
C1304      H1316   1.082       .  S
C1305      H1317   1.082       .  S
C1306      H1318   1.082       .  S
C1307      H1319   1.065       .  S
C1308      H1320   1.065       .  S
C1310      C1342   1.527       .  S
C1311      C1325   1.530       .  S
C1323      C1324   1.533       .  S
C1323      C1329   1.515       .  S
C1323      C1327   1.569       .  S
C1323      C1367   1.557       .  S
C1324      H1331   1.086       .  S
C1324      C1325   1.379       .  D
C1325      C1326   1.554       .  S
C1326      C1330   1.525       .  S
C1326      C1328   1.541       .  S
C1326      H1332   1.107       .  S
C1327      H1333   1.085       .  S
C1327      C1328   1.381       .  D
C1329      H1334   1.088       .  S
C1329      C1330   1.353       .  D
C1335      C1336   1.512       .  S
C1335      C1341   1.540       .  S
C1335      C1339   1.561       .  S
C1335      C1368   1.562       .  S
C1336      H1343   1.085       .  S
C1336      C1337   1.355       .  D
C1337      C1338   1.512       .  S
C1338      C1342   1.548       .  S
C1338      C1340   1.546       .  S
C1338      H1344   1.108       .  S
C1339      H1345   1.085       .  S
C1339      C1340   1.373       .  D
C1341      H1346   1.086       .  S
C1341      C1342   1.382       .  D
N1347      C1352   1.345       .  A
N1347      C1351   1.348       .  A
N1347      H1379   1.041       .  S
N1348      C2735   1.363       .  A
N1348      C1356   1.360       .  A
N1349      C1354   1.352       .  A
N1349      C1353   1.352       .  A
N1349      H1380   1.040       .  S
N1350      C2737   1.366       .  A
N1350      C1358   1.370       .  A
C1351      C1359   1.383       .  A
C1351      C1367   1.396       .  A
C1352      C1368   1.401       .  A
C1352      C1360   1.388       .  A
C1353      C1361   1.383       .  A
C1353      C1370   1.405       .  A
C1354      C1369   1.415       .  A
C1354      C1362   1.389       .  A
C1355      N2728   1.363   1_455  A
C1355      C1367   1.438       .  A
C1355      C1363   1.385       .  A
C1356      C1370   1.444       .  A
C1356      C1364   1.390       .  A
C1357      N2730   1.366   1_455  A
C1357      C1365   1.381       .  A
C1357      C1368   1.447       .  A
C1358      C1366   1.387       .  A
C1358      C1369   1.450       .  A
C1359      C1360   1.373       .  A
C1359      H1371   1.083       .  S
C1360      H1372   1.083       .  S
C1361      C1362   1.374       .  A
C1361      H1373   1.083       .  S
C1362      H1374   1.082       .  S
C1363      C2744   1.379   1_455  A
C1363      H1375   1.082       .  S
C1364      C2743   1.379       .  A
C1364      H1376   1.082       .  S
C1365      C2746   1.371   1_455  A
C1365      H1377   1.082       .  S
C1366      C2745   1.371       .  A
C1366      H1378   1.062       .  S
N1381      N1382   1.311       .  A
N1381      N1387   1.306       .  A
N1381     Mn1410   2.161       .  S
N1382      C1389   1.350       .  A
N1383      N1385   1.305       .  A
N1383      N1384   1.307       .  A
N1384      C1390   1.342       .  A
N1385      N1386   1.315       .  A
N1386      C1390   1.356       .  A
N1387      N1388   1.311       .  A
N1387     Mn1399   2.136   1_554  S
N1388      C1389   1.348       .  A
C1389      C1675   1.431       .  S
C1390      C1537   1.426       .  S
N1391      N1397   1.301       .  A
N1391      N1392   1.307       .  A
N1391     Mn2111   2.128       .  S
N1392      C1400   1.350       .  A
N1393      N1394   1.307       .  A
N1393      N1395   1.308       .  A
N1393     Mn1744   2.150       .  S
N1394      C1401   1.346       .  A
N1395      N1396   1.316       .  A
N1396      C1401   1.345       .  A
N1397      N1398   1.305       .  A
N1398      C1400   1.343       .  A
Mn1399     N1738   2.150       .  S
Mn1399    Cl1423   2.466   1_556  S
C1400      C1486   1.412       .  S
C1401      C1627   1.432       .  S
N1402      N1403   1.318       .  A
N1402      N1408   1.309       .  A
N1403      C1411   1.350       .  A
N1404      N1406   1.305       .  A
N1404      N1405   1.306       .  A
N1405      C1412   1.346       .  A
N1406      N1407   1.308       .  A
N1406     Mn2100   2.138       .  S
N1407      C1412   1.350       .  A
N1408      N1409   1.306       .  A
N1408     Mn1767   2.126       .  S
N1409      C1411   1.340       .  A
Mn1410     N2096   2.138   1_545  S
Mn1410    Cl1423   2.524       .  S
C1411      C1440   1.431       .  S
C1412      C1682   1.423       .  S
N1413      N1414   1.298       .  A
N1413      N1419   1.307       .  A
N1414      C1424   1.348       .  A
N1415      N1416   1.304       .  A
N1415      N1417   1.309       .  A
N1415     Mn1422   2.126       .  S
N1416      C1425   1.344       .  A
N1417      N1418   1.305       .  A
N1417     Mn1421   2.097       .  S
N1418      C1425   1.334       .  A
N1419      N1420   1.308       .  A
N1420      C1424   1.335       .  A
Mn1421     N2081   2.128       .  S
Mn1422     N1753   2.126       .  S
C1424      C1581   1.417       .  S
C1425      C1431   1.396       .  S
C1426      C1427   1.551       .  S
C1426      C1432   1.566       .  S
C1426      C1430   1.514       .  S
C1426      C1471   1.563       .  S
C1427      H1434   1.085       .  S
C1427      C1428   1.393       .  D
C1428      C1608   1.557       .  S
C1428      C1429   1.557       .  S
C1429      C1433   1.546       .  S
C1429      C1431   1.515       .  S
C1429      H1435   1.107       .  S
C1430      H1436   1.088       .  S
C1430      C1431   1.336       .  D
C1432      H1437   1.084       .  S
C1432      C1433   1.380       .  D
C1433      C1518   1.524       .  S
C1438      C1439   1.526       .  S
C1438      C1444   1.561       .  S
C1438      C1442   1.548       .  S
C1438      C1470   1.568       .  S
C1439      H1446   1.087       .  S
C1439      C1440   1.356       .  D
C1440      C1441   1.522       .  S
C1441      C1445   1.533       .  S
C1441      C1443   1.546       .  S
C1441      H1447   1.102       .  S
C1442      H1448   1.085       .  S
C1442      C1443   1.390       .  D
C1443      C1714   1.540       .  S
C1444      H1449   1.084       .  S
C1444      C1445   1.369       .  D
C1445      C1519   1.507       .  S
N1450      C1800   1.361   1_554  A
N1450      C1454   1.365       .  A
N1450      H1482   1.037       .  S
N1451      C1458   1.352       .  A
N1451      C1459   1.348       .  A
N1452      C1802   1.377       .  A
N1452      C1456   1.367   1_556  A
N1452      H1483   1.035       .  S
N1453      C1460   1.350       .  A
N1453      C1461   1.350       .  A
C1454      C1462   1.386       .  A
C1454      C1470   1.439       .  A
C1455      N1795   1.361       .  A
C1455      C1471   1.444       .  A
C1455      C1463   1.390       .  A
C1456      C1464   1.375       .  A
C1456      C1473   1.444       .  A
C1457      N1797   1.377       .  A
C1457      C1472   1.456       .  A
C1457      C1465   1.384       .  A
C1458      C1470   1.414       .  A
C1458      C1466   1.385       .  A
C1459      C1473   1.409       .  A
C1459      C1467   1.387       .  A
C1460      C1468   1.382       .  A
C1460      C1471   1.410       .  A
C1461      C1469   1.390       .  A
C1461      C1472   1.423       .  A
C1462      C1808   1.382   1_554  A
C1462      H1474   1.082       .  S
C1463      C1807   1.382       .  A
C1463      H1475   1.082       .  S
C1464      C1810   1.372   1_554  A
C1464      H1476   1.074       .  S
C1465      C1809   1.372       .  A
C1465      H1477   1.060       .  S
C1466      C1467   1.371       .  A
C1466      H1478   1.082       .  S
C1467      H1479   1.083       .  S
C1468      C1469   1.375       .  A
C1468      H1480   1.083       .  S
C1469      H1481   1.083       .  S
C1472      C1583   1.551       .  S
C1473      C1685   1.509       .  S
C1484      C1485   1.513       .  S
C1484      C1490   1.566       .  S
C1484      C1488   1.550       .  S
C1484      C1609   1.580       .  S
C1485      H1492   1.085       .  S
C1485      C1486   1.359       .  D
C1486      C1487   1.501       .  S
C1487      C1491   1.547       .  S
C1487      C1489   1.552       .  S
C1487      H1493   1.107       .  S
C1488      H1494   1.086       .  S
C1488      C1489   1.389       .  D
C1489      C1517   1.546       .  S
C1490      H1495   1.085       .  S
C1490      C1491   1.381       .  D
C1491      C1563   1.521       .  S
N1496      C1501   1.357       .  A
N1496      C1500   1.358       .  A
N1496      H1528   1.041       .  S
N1497      C2194   1.366       .  A
N1497      C1505   1.362       .  A
N1498      C1503   1.357       .  A
N1498      C1502   1.356       .  A
N1498      H1529   1.033       .  S
N1499      C2196   1.370       .  A
N1499      C1507   1.368       .  A
C1500      C1508   1.386       .  A
C1500      C1516   1.421       .  A
C1501      C1517   1.420       .  A
C1501      C1509   1.387       .  A
C1502      C1510   1.387       .  A
C1502      C1519   1.418       .  A
C1503      C1518   1.420       .  A
C1503      C1511   1.388       .  A
C1504      N2187   1.366       .  A
C1504      C1516   1.441       .  A
C1504      C1512   1.386       .  A
C1505      C1519   1.433       .  A
C1505      C1513   1.379       .  A
C1506      N2189   1.370       .  A
C1506      C1514   1.387       .  A
C1506      C1517   1.454       .  A
C1507      C1515   1.381       .  A
C1507      C1518   1.448       .  A
C1508      C1509   1.373       .  A
C1508      H1520   1.083       .  S
C1509      H1521   1.083       .  S
C1510      C1511   1.371       .  A
C1510      H1522   1.082       .  S
C1511      H1523   1.082       .  S
C1512      C2203   1.366   1_545  A
C1512      H1524   1.064       .  S
C1513      C2202   1.366       .  A
C1513      H1525   1.076       .  S
C1514      C2205   1.380   1_545  A
C1514      H1526   1.069       .  S
C1515      C2204   1.380       .  A
C1515      H1527   1.079       .  S
C1516      C1535   1.536       .  S
C1530      C1531   1.565       .  S
C1530      C1536   1.513       .  S
C1530      C1534   1.541       .  S
C1530      C1715   1.562       .  S
C1531      H1538   1.085       .  S
C1531      C1532   1.379       .  D
C1532      C1564   1.525       .  S
C1532      C1533   1.547       .  S
C1533      C1537   1.520       .  S
C1533      C1535   1.556       .  S
C1533      H1539   1.106       .  S
C1534      H1540   1.086       .  S
C1534      C1535   1.384       .  D
C1536      H1541   1.087       .  S
C1536      C1537   1.348       .  D
N1542      C1547   1.354       .  A
N1542      C1546   1.354       .  A
N1542      H1574   1.038       .  S
N1543      C1895   1.364   1_554  A
N1543      C1551   1.364       .  A
N1544      C1549   1.360       .  A
N1544      C1548   1.361       .  A
N1544      H1575   1.036       .  S
N1545      C1897   1.368   1_554  A
N1545      C1553   1.366       .  A
C1546      C1554   1.386       .  A
C1546      C1562   1.415       .  A
C1547      C1563   1.411       .  A
C1547      C1555   1.386       .  A
C1548      C1556   1.387       .  A
C1548      C1565   1.425       .  A
C1549      C1564   1.427       .  A
C1549      C1557   1.389       .  A
C1550      N1888   1.364       .  A
C1550      C1562   1.446       .  A
C1550      C1558   1.388       .  A
C1551      C1565   1.438       .  A
C1551      C1559   1.386       .  A
C1552      N1890   1.368       .  A
C1552      C1560   1.385       .  A
C1552      C1563   1.446       .  A
C1553      C1561   1.387       .  A
C1553      C1564   1.447       .  A
C1554      C1555   1.372       .  A
C1554      H1566   1.082       .  S
C1555      H1567   1.083       .  S
C1556      C1557   1.374       .  A
C1556      H1568   1.082       .  S
C1557      H1569   1.082       .  S
C1558      C1904   1.379       .  A
C1558      H1570   1.082       .  S
C1559      C1903   1.379   1_554  A
C1559      H1571   1.081       .  S
C1560      C1906   1.385       .  A
C1560      H1572   1.080       .  S
C1561      C1905   1.385   1_554  A
C1561      H1573   1.081       .  S
C1562      C1622   1.568       .  S
C1565      C1673   1.519       .  S
C1576      C1577   1.578       .  S
C1576      C1582   1.539       .  S
C1576      C1580   1.496       .  S
C1576      C1654   1.568       .  S
C1577      H1584   1.085       .  S
C1577      C1578   1.388       .  D
C1578      C1611   1.543       .  S
C1578      C1579   1.549       .  S
C1579      C1583   1.565       .  S
C1579      C1581   1.527       .  S
C1579      H1585   1.103       .  S
C1580      H1586   1.086       .  S
C1580      C1581   1.337       .  D
C1582      H1587   1.085       .  S
C1582      C1583   1.388       .  D
N1588      C1593   1.353       .  A
N1588      C1592   1.354       .  A
N1588      H1620   1.042       .  S
N1589      C1596   1.377       .  A
N1590      C1595   1.362       .  A
N1590      C1594   1.361       .  A
N1590      H1621   1.038       .  S
N1591      C1598   1.370   1_455  A
C1592      C1600   1.388       .  A
C1592      C1608   1.415       .  A
C1593      C1609   1.409       .  A
C1593      C1601   1.385       .  A
C1594      C1602   1.387       .  A
C1594      C1611   1.424       .  A
C1595      C1610   1.432       .  A
C1595      C1603   1.388       .  A
C1596      C1608   1.458       .  A
C1596      C1604   1.385       .  A
C1597      C1611   1.458       .  A
C1597      C1605   1.382       .  A
C1598      C1606   1.383       .  A
C1598      C1609   1.453       .  A
C1599      C1607   1.387       .  A
C1599      C1610   1.455       .  A
C1600      C1601   1.373       .  A
C1600      H1612   1.083       .  S
C1601      H1613   1.083       .  S
C1602      C1603   1.376       .  A
C1602      H1614   1.082       .  S
C1603      H1615   1.083       .  S
C1604      H1616   1.073       .  S
C1605      H1617   1.072       .  S
C1606      H1618   1.082       .  S
C1607      H1619   1.065       .  S
C1610      C1624   1.559       .  S
C1622      C1623   1.550       .  S
C1622      C1628   1.561       .  S
C1622      C1626   1.520       .  S
C1623      H1630   1.085       .  S
C1623      C1624   1.387       .  D
C1624      C1625   1.566       .  S
C1625      C1629   1.553       .  S
C1625      C1627   1.529       .  S
C1625      H1631   1.104       .  S
C1626      H1632   1.087       .  S
C1626      C1627   1.352       .  D
C1628      H1633   1.085       .  S
C1628      C1629   1.372       .  D
C1629      C1657   1.522       .  S
N1634      C1639   1.350       .  A
N1634      C1638   1.350       .  A
N1634      H1666   1.036       .  S
N1635      C2332   1.362   1_545  A
N1635      C1643   1.366       .  A
N1636      C1641   1.353       .  A
N1636      C1640   1.357       .  A
N1636      H1667   1.036       .  S
N1637      C2334   1.368   1_545  A
N1637      C1645   1.367       .  A
C1638      C1646   1.383       .  A
C1638      C1654   1.403       .  A
C1639      C1655   1.413       .  A
C1639      C1647   1.389       .  A
C1640      C1648   1.383       .  A
C1640      C1657   1.411       .  A
C1641      C1656   1.424       .  A
C1641      C1649   1.391       .  A
C1642      N2325   1.362       .  A
C1642      C1654   1.456       .  A
C1642      C1650   1.393       .  A
C1643      C1657   1.435       .  A
C1643      C1651   1.383       .  A
C1644      N2327   1.368       .  A
C1644      C1652   1.376       .  A
C1644      C1655   1.442       .  A
C1645      C1653   1.381       .  A
C1645      C1656   1.444       .  A
C1646      C1647   1.373       .  A
C1646      H1658   1.083       .  S
C1647      H1659   1.083       .  S
C1648      C1649   1.374       .  A
C1648      H1660   1.083       .  S
C1649      H1661   1.082       .  S
C1650      C2341   1.381       .  A
C1650      H1662   1.082       .  S
C1651      C2340   1.381   1_545  A
C1651      H1663   1.082       .  S
C1652      C2343   1.366       .  A
C1652      H1664   1.065       .  S
C1653      C2342   1.366   1_545  A
C1653      H1665   1.065       .  S
C1655      C1687   1.527       .  S
C1656      C1670   1.530       .  S
C1668      C1669   1.533       .  S
C1668      C1674   1.515       .  S
C1668      C1672   1.569       .  S
C1668      C1712   1.557       .  S
C1669      H1676   1.086       .  S
C1669      C1670   1.379       .  D
C1670      C1671   1.554       .  S
C1671      C1675   1.525       .  S
C1671      C1673   1.541       .  S
C1671      H1677   1.107       .  S
C1672      H1678   1.085       .  S
C1672      C1673   1.381       .  D
C1674      H1679   1.088       .  S
C1674      C1675   1.353       .  D
C1680      C1681   1.512       .  S
C1680      C1686   1.540       .  S
C1680      C1684   1.561       .  S
C1680      C1713   1.562       .  S
C1681      H1688   1.085       .  S
C1681      C1682   1.355       .  D
C1682      C1683   1.512       .  S
C1683      C1687   1.548       .  S
C1683      C1685   1.546       .  S
C1683      H1689   1.108       .  S
C1684      H1690   1.085       .  S
C1684      C1685   1.373       .  D
C1686      H1691   1.086       .  S
C1686      C1687   1.382       .  D
N1692      C1697   1.345       .  A
N1692      C1696   1.348       .  A
N1692      H1724   1.041       .  S
N1693      C1701   1.360       .  A
N1694      C1699   1.352       .  A
N1694      C1698   1.352       .  A
N1694      H1725   1.040       .  S
N1695      C1703   1.370       .  A
C1696      C1704   1.383       .  A
C1696      C1712   1.396       .  A
C1697      C1713   1.401       .  A
C1697      C1705   1.388       .  A
C1698      C1706   1.383       .  A
C1698      C1715   1.405       .  A
C1699      C1714   1.415       .  A
C1699      C1707   1.389       .  A
C1700      C1712   1.438       .  A
C1700      C1708   1.385       .  A
C1701      C1715   1.444       .  A
C1701      C1709   1.390       .  A
C1702      C1710   1.381       .  A
C1702      C1713   1.447       .  A
C1703      C1711   1.387       .  A
C1703      C1714   1.450       .  A
C1704      C1705   1.373       .  A
C1704      H1716   1.083       .  S
C1705      H1717   1.083       .  S
C1706      C1707   1.374       .  A
C1706      H1718   1.083       .  S
C1707      H1719   1.082       .  S
C1708      H1720   1.082       .  S
C1709      H1721   1.082       .  S
C1710      H1722   1.082       .  S
C1711      H1723   1.062       .  S
N1726      N1727   1.311       .  A
N1726      N1732   1.306       .  A
N1726     Mn1755   2.161       .  S
N1727      C1734   1.350       .  A
N1728      N1730   1.305       .  A
N1728      N1729   1.307       .  A
N1729      C1735   1.342       .  A
N1730      N1731   1.315       .  A
N1731      C1735   1.356       .  A
N1732      N1733   1.311       .  A
N1732     Mn1744   2.136       .  S
N1733      C1734   1.348       .  A
C1734      C2020   1.431       .  S
C1735      C1882   1.426       .  S
N1736      N1742   1.301       .  A
N1736      N1737   1.307       .  A
N1736     Mn2456   2.128       .  S
N1737      C1745   1.350       .  A
N1738      N1739   1.307       .  A
N1738      N1740   1.308       .  A
N1739      C1746   1.346       .  A
N1740      N1741   1.316       .  A
N1741      C1746   1.345       .  A
N1742      N1743   1.305       .  A
N1743      C1745   1.343       .  A
Mn1744    Cl1768   2.466       .  S
C1745      C1831   1.412       .  S
C1746      C1972   1.432       .  S
N1747      N1748   1.318       .  A
N1747      N1753   1.309       .  A
N1748      C1756   1.350       .  A
N1749      N1751   1.305       .  A
N1749      N1750   1.306       .  A
N1750      C1757   1.346       .  A
N1751      N1752   1.308       .  A
N1751     Mn2445   2.138       .  S
N1752      C1757   1.350       .  A
N1753      N1754   1.306       .  A
N1754      C1756   1.340       .  A
Mn1755     N2441   2.138   1_545  S
Mn1755    Cl1768   2.524       .  S
C1756      C1785   1.431       .  S
C1757      C2027   1.423       .  S
N1758      N1759   1.298       .  A
N1758      N1764   1.307       .  A
N1759      C1769   1.348       .  A
N1760      N1761   1.304       .  A
N1760      N1762   1.309       .  A
N1760     Mn1767   2.126   1_556  S
N1761      C1770   1.344       .  A
N1762      N1763   1.305       .  A
N1762     Mn1766   2.097       .  S
N1763      C1770   1.334       .  A
N1764      N1765   1.308       .  A
N1765      C1769   1.335       .  A
Mn1766     N2426   2.128       .  S
C1769      C1926   1.417       .  S
C1770      C1776   1.396       .  S
C1771      C1772   1.551       .  S
C1771      C1777   1.566       .  S
C1771      C1775   1.514       .  S
C1771      C1816   1.563       .  S
C1772      H1779   1.085       .  S
C1772      C1773   1.393       .  D
C1773      C1953   1.557       .  S
C1773      C1774   1.557       .  S
C1774      C1778   1.546       .  S
C1774      C1776   1.515       .  S
C1774      H1780   1.107       .  S
C1775      H1781   1.088       .  S
C1775      C1776   1.336       .  D
C1777      H1782   1.084       .  S
C1777      C1778   1.380       .  D
C1778      C1863   1.524       .  S
C1783      C1784   1.526       .  S
C1783      C1789   1.561       .  S
C1783      C1787   1.548       .  S
C1783      C1815   1.568       .  S
C1784      H1791   1.087       .  S
C1784      C1785   1.356       .  D
C1785      C1786   1.522       .  S
C1786      C1790   1.533       .  S
C1786      C1788   1.546       .  S
C1786      H1792   1.102       .  S
C1787      H1793   1.085       .  S
C1787      C1788   1.390       .  D
C1788      C2059   1.540       .  S
C1789      H1794   1.084       .  S
C1789      C1790   1.369       .  D
C1790      C1864   1.508       .  S
N1795      C1799   1.365       .  A
N1795      H1827   1.037       .  S
N1796      C1803   1.352       .  A
N1796      C1804   1.348       .  A
N1797      C1801   1.367       .  A
N1797      H1828   1.035       .  S
N1798      C1805   1.350       .  A
N1798      C1806   1.350       .  A
C1799      C1807   1.386       .  A
C1799      C1815   1.439       .  A
C1800      C1816   1.444       .  A
C1800      C1808   1.390       .  A
C1801      C1809   1.375       .  A
C1801      C1818   1.444       .  A
C1802      C1817   1.456       .  A
C1802      C1810   1.384       .  A
C1803      C1815   1.414       .  A
C1803      C1811   1.385       .  A
C1804      C1818   1.409       .  A
C1804      C1812   1.387       .  A
C1805      C1813   1.382       .  A
C1805      C1816   1.410       .  A
C1806      C1814   1.390       .  A
C1806      C1817   1.423       .  A
C1807      H1819   1.082       .  S
C1808      H1820   1.082       .  S
C1809      H1821   1.074       .  S
C1810      H1822   1.060       .  S
C1811      C1812   1.371       .  A
C1811      H1823   1.082       .  S
C1812      H1824   1.083       .  S
C1813      C1814   1.375       .  A
C1813      H1825   1.083       .  S
C1814      H1826   1.083       .  S
C1817      C1928   1.551       .  S
C1818      C2030   1.509       .  S
C1829      C1830   1.513       .  S
C1829      C1835   1.566       .  S
C1829      C1833   1.550       .  S
C1829      C1954   1.580       .  S
C1830      H1837   1.085       .  S
C1830      C1831   1.359       .  D
C1831      C1832   1.501       .  S
C1832      C1836   1.547       .  S
C1832      C1834   1.552       .  S
C1832      H1838   1.107       .  S
C1833      H1839   1.086       .  S
C1833      C1834   1.389       .  D
C1834      C1862   1.546       .  S
C1835      H1840   1.085       .  S
C1835      C1836   1.381       .  D
C1836      C1908   1.521       .  S
N1841      C1846   1.357       .  A
N1841      C1845   1.358       .  A
N1841      H1873   1.041       .  S
N1842      C2539   1.366       .  A
N1842      C1850   1.362       .  A
N1843      C1848   1.357       .  A
N1843      C1847   1.356       .  A
N1843      H1874   1.033       .  S
N1844      C2541   1.370       .  A
N1844      C1852   1.368       .  A
C1845      C1853   1.386       .  A
C1845      C1861   1.421       .  A
C1846      C1862   1.420       .  A
C1846      C1854   1.387       .  A
C1847      C1855   1.387       .  A
C1847      C1864   1.418       .  A
C1848      C1863   1.420       .  A
C1848      C1856   1.388       .  A
C1849      N2532   1.366       .  A
C1849      C1861   1.441       .  A
C1849      C1857   1.386       .  A
C1850      C1864   1.433       .  A
C1850      C1858   1.379       .  A
C1851      N2534   1.370       .  A
C1851      C1859   1.387       .  A
C1851      C1862   1.454       .  A
C1852      C1860   1.381       .  A
C1852      C1863   1.448       .  A
C1853      C1854   1.373       .  A
C1853      H1865   1.083       .  S
C1854      H1866   1.083       .  S
C1855      C1856   1.371       .  A
C1855      H1867   1.082       .  S
C1856      H1868   1.082       .  S
C1857      C2548   1.366   1_545  A
C1857      H1869   1.064       .  S
C1858      C2547   1.366       .  A
C1858      H1870   1.076       .  S
C1859      C2550   1.380   1_545  A
C1859      H1871   1.069       .  S
C1860      C2549   1.380       .  A
C1860      H1872   1.078       .  S
C1861      C1880   1.536       .  S
C1875      C1876   1.565       .  S
C1875      C1881   1.513       .  S
C1875      C1879   1.541       .  S
C1875      C2060   1.562       .  S
C1876      H1883   1.085       .  S
C1876      C1877   1.379       .  D
C1877      C1909   1.525       .  S
C1877      C1878   1.547       .  S
C1878      C1882   1.520       .  S
C1878      C1880   1.556       .  S
C1878      H1884   1.106       .  S
C1879      H1885   1.086       .  S
C1879      C1880   1.384       .  D
C1881      H1886   1.087       .  S
C1881      C1882   1.348       .  D
N1887      C1892   1.354       .  A
N1887      C1891   1.354       .  A
N1887      H1919   1.038       .  S
N1888      C1896   1.364       .  A
N1889      C1894   1.360       .  A
N1889      C1893   1.361       .  A
N1889      H1920   1.036       .  S
N1890      C1898   1.366       .  A
C1891      C1899   1.386       .  A
C1891      C1907   1.415       .  A
C1892      C1908   1.411       .  A
C1892      C1900   1.386       .  A
C1893      C1901   1.387       .  A
C1893      C1910   1.425       .  A
C1894      C1909   1.427       .  A
C1894      C1902   1.389       .  A
C1895      C1907   1.446       .  A
C1895      C1903   1.388       .  A
C1896      C1910   1.438       .  A
C1896      C1904   1.386       .  A
C1897      C1905   1.385       .  A
C1897      C1908   1.446       .  A
C1898      C1906   1.387       .  A
C1898      C1909   1.447       .  A
C1899      C1900   1.372       .  A
C1899      H1911   1.082       .  S
C1900      H1912   1.083       .  S
C1901      C1902   1.374       .  A
C1901      H1913   1.082       .  S
C1902      H1914   1.082       .  S
C1903      H1915   1.082       .  S
C1904      H1916   1.081       .  S
C1905      H1917   1.080       .  S
C1906      H1918   1.081       .  S
C1907      C1967   1.568       .  S
C1910      C2018   1.519       .  S
C1921      C1922   1.578       .  S
C1921      C1927   1.539       .  S
C1921      C1925   1.496       .  S
C1921      C1999   1.568       .  S
C1922      H1929   1.085       .  S
C1922      C1923   1.388       .  D
C1923      C1956   1.543       .  S
C1923      C1924   1.549       .  S
C1924      C1928   1.565       .  S
C1924      C1926   1.527       .  S
C1924      H1930   1.103       .  S
C1925      H1931   1.086       .  S
C1925      C1926   1.337       .  D
C1927      H1932   1.085       .  S
C1927      C1928   1.388       .  D
N1933      C1938   1.353       .  A
N1933      C1937   1.354       .  A
N1933      H1965   1.042       .  S
N1934      C1941   1.377       .  A
N1935      C1940   1.362       .  A
N1935      C1939   1.361       .  A
N1935      H1966   1.038       .  S
N1936      C1943   1.370   1_455  A
C1937      C1945   1.388       .  A
C1937      C1953   1.415       .  A
C1938      C1954   1.409       .  A
C1938      C1946   1.385       .  A
C1939      C1947   1.387       .  A
C1939      C1956   1.424       .  A
C1940      C1955   1.432       .  A
C1940      C1948   1.388       .  A
C1941      C1953   1.458       .  A
C1941      C1949   1.385       .  A
C1942      C1956   1.458       .  A
C1942      C1950   1.382       .  A
C1943      C1951   1.383       .  A
C1943      C1954   1.453       .  A
C1944      C1952   1.387       .  A
C1944      C1955   1.455       .  A
C1945      C1946   1.373       .  A
C1945      H1957   1.083       .  S
C1946      H1958   1.083       .  S
C1947      C1948   1.376       .  A
C1947      H1959   1.082       .  S
C1948      H1960   1.083       .  S
C1949      H1961   1.073       .  S
C1950      H1962   1.072       .  S
C1951      H1963   1.082       .  S
C1952      H1964   1.065       .  S
C1955      C1969   1.559       .  S
C1967      C1968   1.550       .  S
C1967      C1973   1.561       .  S
C1967      C1971   1.520       .  S
C1968      H1975   1.085       .  S
C1968      C1969   1.387       .  D
C1969      C1970   1.566       .  S
C1970      C1974   1.553       .  S
C1970      C1972   1.529       .  S
C1970      H1976   1.104       .  S
C1971      H1977   1.087       .  S
C1971      C1972   1.352       .  D
C1973      H1978   1.085       .  S
C1973      C1974   1.372       .  D
C1974      C2002   1.522       .  S
N1979      C1984   1.350       .  A
N1979      C1983   1.350       .  A
N1979      H2011   1.036       .  S
N1980      C2677   1.362   1_545  A
N1980      C1988   1.366       .  A
N1981      C1986   1.353       .  A
N1981      C1985   1.357       .  A
N1981      H2012   1.036       .  S
N1982      C2679   1.368   1_545  A
N1982      C1990   1.367       .  A
C1983      C1991   1.383       .  A
C1983      C1999   1.403       .  A
C1984      C2000   1.413       .  A
C1984      C1992   1.389       .  A
C1985      C1993   1.383       .  A
C1985      C2002   1.411       .  A
C1986      C2001   1.424       .  A
C1986      C1994   1.391       .  A
C1987      N2670   1.362       .  A
C1987      C1999   1.456       .  A
C1987      C1995   1.393       .  A
C1988      C2002   1.435       .  A
C1988      C1996   1.383       .  A
C1989      N2672   1.368       .  A
C1989      C1997   1.376       .  A
C1989      C2000   1.442       .  A
C1990      C1998   1.381       .  A
C1990      C2001   1.444       .  A
C1991      C1992   1.373       .  A
C1991      H2003   1.083       .  S
C1992      H2004   1.083       .  S
C1993      C1994   1.374       .  A
C1993      H2005   1.083       .  S
C1994      H2006   1.082       .  S
C1995      C2686   1.381       .  A
C1995      H2007   1.082       .  S
C1996      C2685   1.381   1_545  A
C1996      H2008   1.082       .  S
C1997      C2688   1.366       .  A
C1997      H2009   1.065       .  S
C1998      C2687   1.366   1_545  A
C1998      H2010   1.065       .  S
C2000      C2032   1.527       .  S
C2001      C2015   1.530       .  S
C2013      C2014   1.533       .  S
C2013      C2019   1.515       .  S
C2013      C2017   1.569       .  S
C2013      C2057   1.557       .  S
C2014      H2021   1.086       .  S
C2014      C2015   1.379       .  D
C2015      C2016   1.554       .  S
C2016      C2020   1.525       .  S
C2016      C2018   1.541       .  S
C2016      H2022   1.107       .  S
C2017      H2023   1.085       .  S
C2017      C2018   1.381       .  D
C2019      H2024   1.088       .  S
C2019      C2020   1.353       .  D
C2025      C2026   1.512       .  S
C2025      C2031   1.540       .  S
C2025      C2029   1.561       .  S
C2025      C2058   1.562       .  S
C2026      H2033   1.085       .  S
C2026      C2027   1.355       .  D
C2027      C2028   1.512       .  S
C2028      C2032   1.548       .  S
C2028      C2030   1.546       .  S
C2028      H2034   1.108       .  S
C2029      H2035   1.085       .  S
C2029      C2030   1.373       .  D
C2031      H2036   1.086       .  S
C2031      C2032   1.382       .  D
N2037      C2042   1.345       .  A
N2037      C2041   1.348       .  A
N2037      H2069   1.041       .  S
N2038      C2046   1.360       .  A
N2039      C2044   1.352       .  A
N2039      C2043   1.352       .  A
N2039      H2070   1.040       .  S
N2040      C2048   1.370       .  A
C2041      C2049   1.383       .  A
C2041      C2057   1.396       .  A
C2042      C2058   1.401       .  A
C2042      C2050   1.388       .  A
C2043      C2051   1.383       .  A
C2043      C2060   1.405       .  A
C2044      C2059   1.415       .  A
C2044      C2052   1.389       .  A
C2045      C2057   1.438       .  A
C2045      C2053   1.385       .  A
C2046      C2060   1.444       .  A
C2046      C2054   1.390       .  A
C2047      C2055   1.381       .  A
C2047      C2058   1.447       .  A
C2048      C2056   1.387       .  A
C2048      C2059   1.450       .  A
C2049      C2050   1.373       .  A
C2049      H2061   1.083       .  S
C2050      H2062   1.083       .  S
C2051      C2052   1.374       .  A
C2051      H2063   1.083       .  S
C2052      H2064   1.082       .  S
C2053      H2065   1.082       .  S
C2054      H2066   1.082       .  S
C2055      H2067   1.082       .  S
C2056      H2068   1.062       .  S
N2071      N2072   1.311       .  A
N2071      N2077   1.306       .  A
N2071     Mn2100   2.161       .  S
N2072      C2079   1.350       .  A
N2073      N2075   1.305       .  A
N2073      N2074   1.307       .  A
N2074      C2080   1.342       .  A
N2075      N2076   1.315       .  A
N2076      C2080   1.356       .  A
N2077      N2078   1.311       .  A
N2077     Mn2089   2.136   1_554  S
N2078      C2079   1.348       .  A
C2079      C2365   1.431       .  S
C2080      C2227   1.426       .  S
N2081      N2087   1.301       .  A
N2081      N2082   1.307       .  A
N2082      C2090   1.350       .  A
N2083      N2084   1.307       .  A
N2083      N2085   1.308       .  A
N2083     Mn2434   2.150       .  S
N2084      C2091   1.346       .  A
N2085      N2086   1.316       .  A
N2086      C2091   1.345       .  A
N2087      N2088   1.305       .  A
N2088      C2090   1.343       .  A
Mn2089     N2428   2.150       .  S
Mn2089    Cl2113   2.466   1_556  S
C2090      C2176   1.412       .  S
C2091      C2317   1.432       .  S
N2092      N2093   1.318       .  A
N2092      N2098   1.309       .  A
N2093      C2101   1.350       .  A
N2094      N2096   1.305       .  A
N2094      N2095   1.306       .  A
N2095      C2102   1.346       .  A
N2096      N2097   1.308       .  A
N2097      C2102   1.350       .  A
N2098      N2099   1.306       .  A
N2098     Mn2457   2.126       .  S
N2099      C2101   1.340       .  A
Mn2100    Cl2113   2.524       .  S
C2101      C2130   1.431       .  S
C2102      C2372   1.423       .  S
N2103      N2104   1.298       .  A
N2103      N2109   1.307       .  A
N2104      C2114   1.348       .  A
N2105      N2106   1.304       .  A
N2105      N2107   1.309       .  A
N2105     Mn2112   2.126       .  S
N2106      C2115   1.344       .  A
N2107      N2108   1.305       .  A
N2107     Mn2111   2.097   1_565  S
N2108      C2115   1.334       .  A
N2109      N2110   1.308       .  A
N2110      C2114   1.335       .  A
Mn2112     N2443   2.126       .  S
C2114      C2271   1.417       .  S
C2115      C2121   1.396       .  S
C2116      C2117   1.551       .  S
C2116      C2122   1.566       .  S
C2116      C2120   1.514       .  S
C2116      C2161   1.563       .  S
C2117      H2124   1.085       .  S
C2117      C2118   1.393       .  D
C2118      C2298   1.557       .  S
C2118      C2119   1.557       .  S
C2119      C2123   1.546       .  S
C2119      C2121   1.515       .  S
C2119      H2125   1.107       .  S
C2120      H2126   1.088       .  S
C2120      C2121   1.336       .  D
C2122      H2127   1.084       .  S
C2122      C2123   1.380       .  D
C2123      C2208   1.524       .  S
C2128      C2129   1.526       .  S
C2128      C2134   1.561       .  S
C2128      C2132   1.548       .  S
C2128      C2160   1.568       .  S
C2129      H2136   1.087       .  S
C2129      C2130   1.356       .  D
C2130      C2131   1.522       .  S
C2131      C2135   1.533       .  S
C2131      C2133   1.546       .  S
C2131      H2137   1.102       .  S
C2132      H2138   1.085       .  S
C2132      C2133   1.390       .  D
C2133      C2404   1.540       .  S
C2134      H2139   1.084       .  S
C2134      C2135   1.369       .  D
C2135      C2209   1.507       .  S
N2140      C2490   1.361   1_554  A
N2140      C2144   1.365       .  A
N2140      H2172   1.037       .  S
N2141      C2148   1.352       .  A
N2141      C2149   1.348       .  A
N2142      C2492   1.377       .  A
N2142      C2146   1.367   1_556  A
N2142      H2173   1.035       .  S
N2143      C2150   1.350       .  A
N2143      C2151   1.350       .  A
C2144      C2152   1.386       .  A
C2144      C2160   1.439       .  A
C2145      N2485   1.361       .  A
C2145      C2161   1.444       .  A
C2145      C2153   1.390       .  A
C2146      C2154   1.375       .  A
C2146      C2163   1.444       .  A
C2147      N2487   1.377       .  A
C2147      C2162   1.456       .  A
C2147      C2155   1.384       .  A
C2148      C2160   1.414       .  A
C2148      C2156   1.385       .  A
C2149      C2163   1.409       .  A
C2149      C2157   1.387       .  A
C2150      C2158   1.382       .  A
C2150      C2161   1.410       .  A
C2151      C2159   1.390       .  A
C2151      C2162   1.423       .  A
C2152      C2498   1.382   1_554  A
C2152      H2164   1.082       .  S
C2153      C2497   1.382       .  A
C2153      H2165   1.082       .  S
C2154      C2500   1.372   1_554  A
C2154      H2166   1.074       .  S
C2155      C2499   1.372       .  A
C2155      H2167   1.060       .  S
C2156      C2157   1.371       .  A
C2156      H2168   1.082       .  S
C2157      H2169   1.083       .  S
C2158      C2159   1.375       .  A
C2158      H2170   1.083       .  S
C2159      H2171   1.083       .  S
C2162      C2273   1.551       .  S
C2163      C2375   1.509       .  S
C2174      C2175   1.513       .  S
C2174      C2180   1.566       .  S
C2174      C2178   1.550       .  S
C2174      C2299   1.580       .  S
C2175      H2182   1.085       .  S
C2175      C2176   1.359       .  D
C2176      C2177   1.501       .  S
C2177      C2181   1.547       .  S
C2177      C2179   1.552       .  S
C2177      H2183   1.107       .  S
C2178      H2184   1.086       .  S
C2178      C2179   1.389       .  D
C2179      C2207   1.546       .  S
C2180      H2185   1.085       .  S
C2180      C2181   1.381       .  D
C2181      C2253   1.521       .  S
N2186      C2191   1.357       .  A
N2186      C2190   1.358       .  A
N2186      H2218   1.041       .  S
N2187      C2195   1.362   1_545  A
N2188      C2193   1.357       .  A
N2188      C2192   1.356       .  A
N2188      H2219   1.033       .  S
N2189      C2197   1.368   1_545  A
C2190      C2198   1.386       .  A
C2190      C2206   1.421       .  A
C2191      C2207   1.420       .  A
C2191      C2199   1.387       .  A
C2192      C2200   1.387       .  A
C2192      C2209   1.418       .  A
C2193      C2208   1.420       .  A
C2193      C2201   1.388       .  A
C2194      C2206   1.441       .  A
C2194      C2202   1.386       .  A
C2195      C2209   1.433       .  A
C2195      C2203   1.379       .  A
C2196      C2204   1.387       .  A
C2196      C2207   1.454       .  A
C2197      C2205   1.381       .  A
C2197      C2208   1.448       .  A
C2198      C2199   1.373       .  A
C2198      H2210   1.083       .  S
C2199      H2211   1.083       .  S
C2200      C2201   1.371       .  A
C2200      H2212   1.082       .  S
C2201      H2213   1.082       .  S
C2202      H2214   1.064       .  S
C2203      H2215   1.076       .  S
C2204      H2216   1.069       .  S
C2205      H2217   1.079       .  S
C2206      C2225   1.536       .  S
C2220      C2221   1.565       .  S
C2220      C2226   1.513       .  S
C2220      C2224   1.541       .  S
C2220      C2405   1.562       .  S
C2221      H2228   1.085       .  S
C2221      C2222   1.379       .  D
C2222      C2254   1.525       .  S
C2222      C2223   1.547       .  S
C2223      C2227   1.520       .  S
C2223      C2225   1.556       .  S
C2223      H2229   1.106       .  S
C2224      H2230   1.086       .  S
C2224      C2225   1.384       .  D
C2226      H2231   1.087       .  S
C2226      C2227   1.348       .  D
N2232      C2237   1.354       .  A
N2232      C2236   1.354       .  A
N2232      H2264   1.038       .  S
N2233      C2585   1.364   1_554  A
N2233      C2241   1.364       .  A
N2234      C2239   1.360       .  A
N2234      C2238   1.361       .  A
N2234      H2265   1.036       .  S
N2235      C2587   1.368   1_554  A
N2235      C2243   1.366       .  A
C2236      C2244   1.386       .  A
C2236      C2252   1.415       .  A
C2237      C2253   1.411       .  A
C2237      C2245   1.386       .  A
C2238      C2246   1.387       .  A
C2238      C2255   1.425       .  A
C2239      C2254   1.427       .  A
C2239      C2247   1.389       .  A
C2240      N2578   1.364       .  A
C2240      C2252   1.446       .  A
C2240      C2248   1.388       .  A
C2241      C2255   1.438       .  A
C2241      C2249   1.386       .  A
C2242      N2580   1.368       .  A
C2242      C2250   1.385       .  A
C2242      C2253   1.446       .  A
C2243      C2251   1.387       .  A
C2243      C2254   1.447       .  A
C2244      C2245   1.372       .  A
C2244      H2256   1.082       .  S
C2245      H2257   1.083       .  S
C2246      C2247   1.374       .  A
C2246      H2258   1.082       .  S
C2247      H2259   1.082       .  S
C2248      C2594   1.379       .  A
C2248      H2260   1.082       .  S
C2249      C2593   1.379   1_554  A
C2249      H2261   1.081       .  S
C2250      C2596   1.385       .  A
C2250      H2262   1.080       .  S
C2251      C2595   1.385   1_554  A
C2251      H2263   1.081       .  S
C2252      C2312   1.568       .  S
C2255      C2363   1.519       .  S
C2266      C2267   1.578       .  S
C2266      C2272   1.539       .  S
C2266      C2270   1.496       .  S
C2266      C2344   1.568       .  S
C2267      H2274   1.085       .  S
C2267      C2268   1.388       .  D
C2268      C2301   1.543       .  S
C2268      C2269   1.549       .  S
C2269      C2273   1.565       .  S
C2269      C2271   1.527       .  S
C2269      H2275   1.103       .  S
C2270      H2276   1.086       .  S
C2270      C2271   1.337       .  D
C2272      H2277   1.085       .  S
C2272      C2273   1.388       .  D
N2278      C2283   1.353       .  A
N2278      C2282   1.354       .  A
N2278      H2310   1.042       .  S
N2279      C2286   1.377       .  A
N2280      C2285   1.362       .  A
N2280      C2284   1.361       .  A
N2280      H2311   1.038       .  S
N2281      C2288   1.370   1_455  A
C2282      C2290   1.388       .  A
C2282      C2298   1.415       .  A
C2283      C2299   1.409       .  A
C2283      C2291   1.385       .  A
C2284      C2292   1.387       .  A
C2284      C2301   1.424       .  A
C2285      C2300   1.432       .  A
C2285      C2293   1.388       .  A
C2286      C2298   1.458       .  A
C2286      C2294   1.385       .  A
C2287      C2301   1.458       .  A
C2287      C2295   1.382       .  A
C2288      C2296   1.383       .  A
C2288      C2299   1.453       .  A
C2289      C2297   1.387       .  A
C2289      C2300   1.455       .  A
C2290      C2291   1.373       .  A
C2290      H2302   1.083       .  S
C2291      H2303   1.083       .  S
C2292      C2293   1.376       .  A
C2292      H2304   1.082       .  S
C2293      H2305   1.083       .  S
C2294      H2306   1.073       .  S
C2295      H2307   1.072       .  S
C2296      H2308   1.082       .  S
C2297      H2309   1.065       .  S
C2300      C2314   1.559       .  S
C2312      C2313   1.550       .  S
C2312      C2318   1.561       .  S
C2312      C2316   1.520       .  S
C2313      H2320   1.085       .  S
C2313      C2314   1.387       .  D
C2314      C2315   1.566       .  S
C2315      C2319   1.553       .  S
C2315      C2317   1.529       .  S
C2315      H2321   1.104       .  S
C2316      H2322   1.087       .  S
C2316      C2317   1.352       .  D
C2318      H2323   1.085       .  S
C2318      C2319   1.372       .  D
C2319      C2347   1.522       .  S
N2324      C2329   1.350       .  A
N2324      C2328   1.350       .  A
N2324      H2356   1.036       .  S
N2325      C2333   1.366       .  A
N2326      C2331   1.353       .  A
N2326      C2330   1.357       .  A
N2326      H2357   1.036       .  S
N2327      C2335   1.367       .  A
C2328      C2336   1.383       .  A
C2328      C2344   1.403       .  A
C2329      C2345   1.413       .  A
C2329      C2337   1.389       .  A
C2330      C2338   1.383       .  A
C2330      C2347   1.411       .  A
C2331      C2346   1.424       .  A
C2331      C2339   1.391       .  A
C2332      C2344   1.456       .  A
C2332      C2340   1.393       .  A
C2333      C2347   1.435       .  A
C2333      C2341   1.383       .  A
C2334      C2342   1.376       .  A
C2334      C2345   1.442       .  A
C2335      C2343   1.381       .  A
C2335      C2346   1.444       .  A
C2336      C2337   1.373       .  A
C2336      H2348   1.083       .  S
C2337      H2349   1.083       .  S
C2338      C2339   1.374       .  A
C2338      H2350   1.083       .  S
C2339      H2351   1.082       .  S
C2340      H2352   1.082       .  S
C2341      H2353   1.082       .  S
C2342      H2354   1.065       .  S
C2343      H2355   1.065       .  S
C2345      C2377   1.527       .  S
C2346      C2360   1.530       .  S
C2358      C2359   1.533       .  S
C2358      C2364   1.515       .  S
C2358      C2362   1.569       .  S
C2358      C2402   1.557       .  S
C2359      H2366   1.086       .  S
C2359      C2360   1.379       .  D
C2360      C2361   1.554       .  S
C2361      C2365   1.525       .  S
C2361      C2363   1.541       .  S
C2361      H2367   1.107       .  S
C2362      H2368   1.085       .  S
C2362      C2363   1.381       .  D
C2364      H2369   1.088       .  S
C2364      C2365   1.353       .  D
C2370      C2371   1.512       .  S
C2370      C2376   1.540       .  S
C2370      C2374   1.561       .  S
C2370      C2403   1.562       .  S
C2371      H2378   1.085       .  S
C2371      C2372   1.355       .  D
C2372      C2373   1.512       .  S
C2373      C2377   1.548       .  S
C2373      C2375   1.546       .  S
C2373      H2379   1.108       .  S
C2374      H2380   1.085       .  S
C2374      C2375   1.373       .  D
C2376      H2381   1.086       .  S
C2376      C2377   1.382       .  D
N2382      C2387   1.345       .  A
N2382      C2386   1.348       .  A
N2382      H2414   1.041       .  S
N2383      C2391   1.360       .  A
N2384      C2389   1.352       .  A
N2384      C2388   1.352       .  A
N2384      H2415   1.040       .  S
N2385      C2393   1.370       .  A
C2386      C2394   1.383       .  A
C2386      C2402   1.396       .  A
C2387      C2403   1.401       .  A
C2387      C2395   1.388       .  A
C2388      C2396   1.383       .  A
C2388      C2405   1.405       .  A
C2389      C2404   1.415       .  A
C2389      C2397   1.389       .  A
C2390      C2402   1.438       .  A
C2390      C2398   1.385       .  A
C2391      C2405   1.444       .  A
C2391      C2399   1.390       .  A
C2392      C2400   1.381       .  A
C2392      C2403   1.447       .  A
C2393      C2401   1.387       .  A
C2393      C2404   1.450       .  A
C2394      C2395   1.373       .  A
C2394      H2406   1.083       .  S
C2395      H2407   1.083       .  S
C2396      C2397   1.374       .  A
C2396      H2408   1.083       .  S
C2397      H2409   1.082       .  S
C2398      H2410   1.082       .  S
C2399      H2411   1.082       .  S
C2400      H2412   1.082       .  S
C2401      H2413   1.062       .  S
N2416      N2417   1.311       .  A
N2416      N2422   1.306       .  A
N2416     Mn2445   2.161       .  S
N2417      C2424   1.350       .  A
N2418      N2420   1.305       .  A
N2418      N2419   1.307       .  A
N2419      C2425   1.342       .  A
N2420      N2421   1.315       .  A
N2421      C2425   1.356       .  A
N2422      N2423   1.311       .  A
N2422     Mn2434   2.136       .  S
N2423      C2424   1.348       .  A
C2424      C2710   1.431       .  S
C2425      C2572   1.426       .  S
N2426      N2432   1.301       .  A
N2426      N2427   1.307       .  A
N2427      C2435   1.350       .  A
N2428      N2429   1.307       .  A
N2428      N2430   1.308       .  A
N2429      C2436   1.346       .  A
N2430      N2431   1.316       .  A
N2431      C2436   1.345       .  A
N2432      N2433   1.305       .  A
N2433      C2435   1.343       .  A
Mn2434    Cl2458   2.466       .  S
C2435      C2521   1.412       .  S
C2436      C2662   1.432       .  S
N2437      N2438   1.318       .  A
N2437      N2443   1.309       .  A
N2438      C2446   1.350       .  A
N2439      N2441   1.305       .  A
N2439      N2440   1.306       .  A
N2440      C2447   1.346       .  A
N2441      N2442   1.308       .  A
N2442      C2447   1.350       .  A
N2443      N2444   1.306       .  A
N2444      C2446   1.340       .  A
Mn2445    Cl2458   2.524       .  S
C2446      C2475   1.431       .  S
C2447      C2717   1.423       .  S
N2448      N2449   1.298       .  A
N2448      N2454   1.307       .  A
N2449      C2459   1.348       .  A
N2450      N2451   1.304       .  A
N2450      N2452   1.309       .  A
N2450     Mn2457   2.126   1_556  S
N2451      C2460   1.344       .  A
N2452      N2453   1.305       .  A
N2452     Mn2456   2.097   1_565  S
N2453      C2460   1.334       .  A
N2454      N2455   1.308       .  A
N2455      C2459   1.335       .  A
C2459      C2616   1.417       .  S
C2460      C2466   1.396       .  S
C2461      C2462   1.551       .  S
C2461      C2467   1.566       .  S
C2461      C2465   1.514       .  S
C2461      C2506   1.563       .  S
C2462      H2469   1.085       .  S
C2462      C2463   1.393       .  D
C2463      C2643   1.557       .  S
C2463      C2464   1.557       .  S
C2464      C2468   1.546       .  S
C2464      C2466   1.515       .  S
C2464      H2470   1.107       .  S
C2465      H2471   1.088       .  S
C2465      C2466   1.336       .  D
C2467      H2472   1.084       .  S
C2467      C2468   1.380       .  D
C2468      C2553   1.524       .  S
C2473      C2474   1.526       .  S
C2473      C2479   1.561       .  S
C2473      C2477   1.548       .  S
C2473      C2505   1.568       .  S
C2474      H2481   1.087       .  S
C2474      C2475   1.356       .  D
C2475      C2476   1.522       .  S
C2476      C2480   1.533       .  S
C2476      C2478   1.546       .  S
C2476      H2482   1.102       .  S
C2477      H2483   1.085       .  S
C2477      C2478   1.390       .  D
C2478      C2749   1.540       .  S
C2479      H2484   1.084       .  S
C2479      C2480   1.369       .  D
C2480      C2554   1.508       .  S
N2485      C2489   1.365       .  A
N2485      H2517   1.037       .  S
N2486      C2493   1.352       .  A
N2486      C2494   1.348       .  A
N2487      C2491   1.367       .  A
N2487      H2518   1.035       .  S
N2488      C2495   1.350       .  A
N2488      C2496   1.350       .  A
C2489      C2497   1.386       .  A
C2489      C2505   1.439       .  A
C2490      C2506   1.444       .  A
C2490      C2498   1.390       .  A
C2491      C2499   1.375       .  A
C2491      C2508   1.444       .  A
C2492      C2507   1.456       .  A
C2492      C2500   1.384       .  A
C2493      C2505   1.414       .  A
C2493      C2501   1.385       .  A
C2494      C2508   1.409       .  A
C2494      C2502   1.387       .  A
C2495      C2503   1.382       .  A
C2495      C2506   1.410       .  A
C2496      C2504   1.390       .  A
C2496      C2507   1.423       .  A
C2497      H2509   1.082       .  S
C2498      H2510   1.082       .  S
C2499      H2511   1.074       .  S
C2500      H2512   1.060       .  S
C2501      C2502   1.371       .  A
C2501      H2513   1.082       .  S
C2502      H2514   1.083       .  S
C2503      C2504   1.375       .  A
C2503      H2515   1.083       .  S
C2504      H2516   1.083       .  S
C2507      C2618   1.551       .  S
C2508      C2720   1.509       .  S
C2519      C2520   1.513       .  S
C2519      C2525   1.566       .  S
C2519      C2523   1.550       .  S
C2519      C2644   1.580       .  S
C2520      H2527   1.085       .  S
C2520      C2521   1.359       .  D
C2521      C2522   1.501       .  S
C2522      C2526   1.547       .  S
C2522      C2524   1.552       .  S
C2522      H2528   1.107       .  S
C2523      H2529   1.086       .  S
C2523      C2524   1.389       .  D
C2524      C2552   1.546       .  S
C2525      H2530   1.085       .  S
C2525      C2526   1.381       .  D
C2526      C2598   1.521       .  S
N2531      C2536   1.357       .  A
N2531      C2535   1.358       .  A
N2531      H2563   1.041       .  S
N2532      C2540   1.362   1_545  A
N2533      C2538   1.357       .  A
N2533      C2537   1.356       .  A
N2533      H2564   1.033       .  S
N2534      C2542   1.368   1_545  A
C2535      C2543   1.386       .  A
C2535      C2551   1.421       .  A
C2536      C2552   1.420       .  A
C2536      C2544   1.387       .  A
C2537      C2545   1.387       .  A
C2537      C2554   1.418       .  A
C2538      C2553   1.420       .  A
C2538      C2546   1.388       .  A
C2539      C2551   1.441       .  A
C2539      C2547   1.386       .  A
C2540      C2554   1.433       .  A
C2540      C2548   1.379       .  A
C2541      C2549   1.387       .  A
C2541      C2552   1.454       .  A
C2542      C2550   1.381       .  A
C2542      C2553   1.448       .  A
C2543      C2544   1.373       .  A
C2543      H2555   1.083       .  S
C2544      H2556   1.083       .  S
C2545      C2546   1.371       .  A
C2545      H2557   1.082       .  S
C2546      H2558   1.082       .  S
C2547      H2559   1.064       .  S
C2548      H2560   1.076       .  S
C2549      H2561   1.069       .  S
C2550      H2562   1.079       .  S
C2551      C2570   1.536       .  S
C2565      C2566   1.565       .  S
C2565      C2571   1.513       .  S
C2565      C2569   1.541       .  S
C2565      C2750   1.562       .  S
C2566      H2573   1.085       .  S
C2566      C2567   1.379       .  D
C2567      C2599   1.525       .  S
C2567      C2568   1.547       .  S
C2568      C2572   1.520       .  S
C2568      C2570   1.556       .  S
C2568      H2574   1.106       .  S
C2569      H2575   1.086       .  S
C2569      C2570   1.384       .  D
C2571      H2576   1.087       .  S
C2571      C2572   1.348       .  D
N2577      C2582   1.354       .  A
N2577      C2581   1.354       .  A
N2577      H2609   1.038       .  S
N2578      C2586   1.364       .  A
N2579      C2584   1.360       .  A
N2579      C2583   1.361       .  A
N2579      H2610   1.036       .  S
N2580      C2588   1.366       .  A
C2581      C2589   1.386       .  A
C2581      C2597   1.415       .  A
C2582      C2598   1.411       .  A
C2582      C2590   1.386       .  A
C2583      C2591   1.387       .  A
C2583      C2600   1.425       .  A
C2584      C2599   1.427       .  A
C2584      C2592   1.389       .  A
C2585      C2597   1.446       .  A
C2585      C2593   1.388       .  A
C2586      C2600   1.438       .  A
C2586      C2594   1.386       .  A
C2587      C2595   1.385       .  A
C2587      C2598   1.446       .  A
C2588      C2596   1.387       .  A
C2588      C2599   1.447       .  A
C2589      C2590   1.372       .  A
C2589      H2601   1.082       .  S
C2590      H2602   1.083       .  S
C2591      C2592   1.374       .  A
C2591      H2603   1.082       .  S
C2592      H2604   1.082       .  S
C2593      H2605   1.082       .  S
C2594      H2606   1.081       .  S
C2595      H2607   1.080       .  S
C2596      H2608   1.081       .  S
C2597      C2657   1.568       .  S
C2600      C2708   1.519       .  S
C2611      C2612   1.578       .  S
C2611      C2617   1.539       .  S
C2611      C2615   1.496       .  S
C2611      C2689   1.568       .  S
C2612      H2619   1.085       .  S
C2612      C2613   1.388       .  D
C2613      C2646   1.543       .  S
C2613      C2614   1.549       .  S
C2614      C2618   1.565       .  S
C2614      C2616   1.527       .  S
C2614      H2620   1.103       .  S
C2615      H2621   1.086       .  S
C2615      C2616   1.337       .  D
C2617      H2622   1.085       .  S
C2617      C2618   1.388       .  D
N2623      C2628   1.353       .  A
N2623      C2627   1.354       .  A
N2623      H2655   1.042       .  S
N2624      C2631   1.377       .  A
N2625      C2630   1.362       .  A
N2625      C2629   1.361       .  A
N2625      H2656   1.038       .  S
N2626      C2633   1.370   1_455  A
C2627      C2635   1.388       .  A
C2627      C2643   1.415       .  A
C2628      C2644   1.409       .  A
C2628      C2636   1.385       .  A
C2629      C2637   1.387       .  A
C2629      C2646   1.424       .  A
C2630      C2645   1.432       .  A
C2630      C2638   1.388       .  A
C2631      C2643   1.458       .  A
C2631      C2639   1.385       .  A
C2632      C2646   1.458       .  A
C2632      C2640   1.382       .  A
C2633      C2641   1.383       .  A
C2633      C2644   1.453       .  A
C2634      C2642   1.387       .  A
C2634      C2645   1.455       .  A
C2635      C2636   1.373       .  A
C2635      H2647   1.083       .  S
C2636      H2648   1.083       .  S
C2637      C2638   1.376       .  A
C2637      H2649   1.082       .  S
C2638      H2650   1.083       .  S
C2639      H2651   1.073       .  S
C2640      H2652   1.072       .  S
C2641      H2653   1.082       .  S
C2642      H2654   1.065       .  S
C2645      C2659   1.559       .  S
C2657      C2658   1.550       .  S
C2657      C2663   1.561       .  S
C2657      C2661   1.520       .  S
C2658      H2665   1.085       .  S
C2658      C2659   1.387       .  D
C2659      C2660   1.566       .  S
C2660      C2664   1.553       .  S
C2660      C2662   1.529       .  S
C2660      H2666   1.104       .  S
C2661      H2667   1.087       .  S
C2661      C2662   1.352       .  D
C2663      H2668   1.085       .  S
C2663      C2664   1.372       .  D
C2664      C2692   1.522       .  S
N2669      C2674   1.350       .  A
N2669      C2673   1.350       .  A
N2669      H2701   1.036       .  S
N2670      C2678   1.366       .  A
N2671      C2676   1.353       .  A
N2671      C2675   1.357       .  A
N2671      H2702   1.036       .  S
N2672      C2680   1.367       .  A
C2673      C2681   1.383       .  A
C2673      C2689   1.403       .  A
C2674      C2690   1.413       .  A
C2674      C2682   1.389       .  A
C2675      C2683   1.383       .  A
C2675      C2692   1.411       .  A
C2676      C2691   1.424       .  A
C2676      C2684   1.391       .  A
C2677      C2689   1.456       .  A
C2677      C2685   1.393       .  A
C2678      C2692   1.435       .  A
C2678      C2686   1.383       .  A
C2679      C2687   1.376       .  A
C2679      C2690   1.442       .  A
C2680      C2688   1.381       .  A
C2680      C2691   1.444       .  A
C2681      C2682   1.373       .  A
C2681      H2693   1.083       .  S
C2682      H2694   1.083       .  S
C2683      C2684   1.374       .  A
C2683      H2695   1.083       .  S
C2684      H2696   1.082       .  S
C2685      H2697   1.082       .  S
C2686      H2698   1.082       .  S
C2687      H2699   1.065       .  S
C2688      H2700   1.065       .  S
C2690      C2722   1.527       .  S
C2691      C2705   1.530       .  S
C2703      C2704   1.533       .  S
C2703      C2709   1.515       .  S
C2703      C2707   1.569       .  S
C2703      C2747   1.557       .  S
C2704      H2711   1.086       .  S
C2704      C2705   1.379       .  D
C2705      C2706   1.554       .  S
C2706      C2710   1.525       .  S
C2706      C2708   1.541       .  S
C2706      H2712   1.107       .  S
C2707      H2713   1.085       .  S
C2707      C2708   1.381       .  D
C2709      H2714   1.088       .  S
C2709      C2710   1.353       .  D
C2715      C2716   1.512       .  S
C2715      C2721   1.540       .  S
C2715      C2719   1.561       .  S
C2715      C2748   1.562       .  S
C2716      H2723   1.085       .  S
C2716      C2717   1.355       .  D
C2717      C2718   1.512       .  S
C2718      C2722   1.548       .  S
C2718      C2720   1.546       .  S
C2718      H2724   1.108       .  S
C2719      H2725   1.085       .  S
C2719      C2720   1.373       .  D
C2721      H2726   1.086       .  S
C2721      C2722   1.382       .  D
N2727      C2732   1.345       .  A
N2727      C2731   1.348       .  A
N2727      H2759   1.041       .  S
N2728      C2736   1.360       .  A
N2729      C2734   1.352       .  A
N2729      C2733   1.352       .  A
N2729      H2760   1.040       .  S
N2730      C2738   1.370       .  A
C2731      C2739   1.383       .  A
C2731      C2747   1.396       .  A
C2732      C2748   1.401       .  A
C2732      C2740   1.388       .  A
C2733      C2741   1.383       .  A
C2733      C2750   1.405       .  A
C2734      C2749   1.415       .  A
C2734      C2742   1.389       .  A
C2735      C2747   1.438       .  A
C2735      C2743   1.385       .  A
C2736      C2750   1.444       .  A
C2736      C2744   1.390       .  A
C2737      C2745   1.381       .  A
C2737      C2748   1.447       .  A
C2738      C2746   1.387       .  A
C2738      C2749   1.450       .  A
C2739      C2740   1.373       .  A
C2739      H2751   1.083       .  S
C2740      H2752   1.083       .  S
C2741      C2742   1.374       .  A
C2741      H2753   1.083       .  S
C2742      H2754   1.082       .  S
C2743      H2755   1.082       .  S
C2744      H2756   1.082       .  S
C2745      H2757   1.082       .  S
C2746      H2758   1.062       .  S
