geometry optimzed in LAMMPS
_audit_creation_date              2020-12-01 
_audit_creation_method            'lammps2cif' 
_symmetry_space_group_name_H-M    'P1' 
_symmetry_Int_Tables_number       1 
_symmetry_cell_setting            triclinic 
loop_ 
_symmetry_equiv_pos_as_xyz 
  x,y,z 
_cell_length_a                    58.2455769 
_cell_length_b                    60.48997808075307 
_cell_length_c                    59.25543217809319 
_cell_angle_alpha                 89.60002655734266 
_cell_angle_beta                  90.58092333629924 
_cell_angle_gamma                 90.06367157902336 
loop_ 
_atom_site_label 
_atom_site_type_symbol 
_atom_site_fract_x 
_atom_site_fract_y 
_atom_site_fract_z 
_atom_site_charge 
N1          N  0.81419245  0.83649814  0.00648602    -0.02800
C2          C  0.80628125  0.82580433  0.02500636    -0.00200
C3          C  0.80526452  0.80331046  0.02128008    -0.23100
C4          C  0.81222375  0.80004537  0.99952812    -0.23300
C5          C  0.81722790  0.82070990  0.99052867    -0.00300
H6          H  0.79942217  0.79067865  0.03290919     0.13500
H7          H  0.81181283  0.78438305  0.99083673     0.13500
N8          N  0.77901750  0.18748106  0.99445376    -0.02800
C9          C  0.76362021  0.19347740  0.01046555    -0.00200
C10         C  0.74148279  0.19214856  0.00165283    -0.23100
C11         C  0.74332966  0.18630862  0.97950260    -0.23300
C12         C  0.76641477  0.18422253  0.97524740    -0.00300
H13         H  0.72556179  0.19603033  0.00997781     0.13500
H14         H  0.72946904  0.18618367  0.96718604     0.13500
N15         N  0.18300477  0.87872732  0.00073712    -0.02800
C16         C  0.19535110  0.88148321  0.02000000    -0.00200
C17         C  0.21817649  0.88509832  0.01502073    -0.23100
C18         C  0.22004019  0.88373309  0.99200566    -0.23300
C19         C  0.19820874  0.87936183  0.98347350    -0.00300
H20         H  0.23236711  0.88640640  0.02686630     0.13500
H21         H  0.23611350  0.88392509  0.98306412     0.13500
N22         N  0.80188766  0.03752958  0.81958979    -0.02800
C23         C  0.79022616  0.05699473  0.81897757    -0.00200
C24         C  0.76946470  0.05441440  0.80777933    -0.23100
C25         C  0.76847963  0.03289688  0.80084287    -0.23300
C26         C  0.78872024  0.02289214  0.80793449    -0.00300
H27         H  0.75699818  0.06714469  0.80377396     0.13500
H28         H  0.75447520  0.02546657  0.79144790     0.13500
N29         N  0.97937822  0.16764979  0.79846438    -0.02800
C30         C  0.95877177  0.16727612  0.78751295    -0.00200
C31         C  0.96218384  0.16419796  0.76461682    -0.23100
C32         C  0.98536897  0.16409441  0.76127263    -0.23300
C33         C  0.99567432  0.16690455  0.78222920    -0.00300
H34         H  0.94949680  0.16532392  0.75119535     0.13500
H35         H  0.99333402  0.16466012  0.74488461     0.13500
N36         N  0.98276770  0.89208566  0.79549232    -0.02800
C37         C  0.96236752  0.89196532  0.78427308    -0.00200
C38         C  0.96586495  0.89045379  0.76132077    -0.23100
C39         C  0.98910604  0.88883072  0.75836513    -0.23300
C40         C  0.99931434  0.88947807  0.77966545    -0.00300
H41         H  0.95290623  0.88842059  0.74827614     0.13500
H42         H  0.99710751  0.88520622  0.74243648     0.13500
N43         N  0.16297884  0.02778213  0.83000502    -0.02800
C44         C  0.17608888  0.04615947  0.82783170    -0.00200
C45         C  0.19879503  0.04042858  0.82463570    -0.23100
C46         C  0.19963148  0.01773466  0.82462973    -0.23300
C47         C  0.17739940  0.01030863  0.82788298    -0.00300
H48         H  0.21295817  0.05150157  0.82117756     0.13500
H49         H  0.21457239  0.00781588  0.82096940     0.13500
N50         N  0.97672781  0.81500494  0.14847100    -0.02800
C51         C  0.95890237  0.80060274  0.15144520    -0.00200
C52         C  0.96723014  0.77938672  0.15470452    -0.23100
C53         C  0.99068309  0.78074294  0.15436492    -0.23300
C54         C  0.99634324  0.80276083  0.15093194    -0.00300
H55         H  0.95755559  0.76465642  0.15881660     0.13500
H56         H  0.00226958  0.76728897  0.15843880     0.13500
N57         N  0.80497662  0.03459569  0.19257434    -0.02800
C58         C  0.80786449  0.05320110  0.20485431    -0.00200
C59         C  0.80696408  0.04831279  0.22768184    -0.23100
C60         C  0.80248544  0.02613296  0.22943746    -0.23300
C61         C  0.80066390  0.01812389  0.20763577    -0.00300
H62         H  0.80732597  0.05984651  0.24155782     0.13500
H63         H  0.79931678  0.01719311  0.24498103     0.13500
N64         N  0.98080772  0.18174078  0.20935635    -0.02800
C65         C  0.96191331  0.18226050  0.22264800    -0.00200
C66         C  0.96838908  0.18046089  0.24514399    -0.23100
C67         C  0.99181887  0.17961352  0.24579734    -0.23300
C68         C  0.99927305  0.18090298  0.22367942    -0.00300
H69         H  0.95762116  0.18197336  0.25981508     0.13500
H70         H  0.00206100  0.18048969  0.26108509     0.13500
Zr71       Zr  0.26346526  0.29893441  0.28296285     2.17500
O72         O  0.29308561  0.28420322  0.30821515    -0.50700
O73         O  0.26604925  0.33773964  0.29244577    -0.73900
O74         O  0.30046327  0.31107686  0.26971751    -0.80600
O75         O  0.21499197  0.29516200  0.32466557    -0.82400
O76         O  0.30038341  0.30697389  0.23158291    -0.78000
O77         O  0.25346769  0.30122125  0.32205712    -0.89700
O78         O  0.24264152  0.35689557  0.26844286    -0.75600
O79         O  0.25888133  0.31583550  0.24689224    -0.85100
O80         O  0.22533865  0.31305512  0.28192409    -0.84800
O81         O  0.27124162  0.27014657  0.25644831    -0.71600
O82         O  0.23901587  0.26768103  0.28955947    -0.83700
Zr83       Zr  0.20272261  0.27011053  0.22530258     2.26400
Zr84       Zr  0.26532903  0.28722256  0.22014577     2.06300
Zr85       Zr  0.20063651  0.28203795  0.28788418     2.10000
Zr86       Zr  0.22096166  0.32989167  0.24593073     1.78800
O87         O  0.19144890  0.25403423  0.31609572    -0.92500
O88         O  0.23556712  0.35608820  0.21808800    -0.40300
O89         O  0.19523156  0.29917007  0.25157321    -0.76900
O90         O  0.22694656  0.30152459  0.21838915    -0.95600
O91         O  0.24080699  0.25610754  0.22606614    -0.88900
O92         O  0.20761863  0.25336782  0.26142292    -0.91800
C93         C  0.25734979  0.35576714  0.28477945     1.02000
C94         C  0.23467683  0.30070006  0.33306983     1.14900
C95         C  0.30958841  0.31350526  0.25025868     1.05700
O96         O  0.27294211  0.31314110  0.18945700    -0.93900
O97         O  0.25266233  0.26997363  0.18453207    -0.89700
O98         O  0.21453179  0.26237427  0.18737801    -0.82800
C99         C  0.23345705  0.26257772  0.17653472     1.12300
O100        O  0.27430816  0.22662290  0.28930085    -0.95900
Zr101      Zr  0.24564237  0.23947796  0.26207211     1.88900
O102        O  0.19650088  0.23099649  0.21921096    -0.72500
O103        O  0.29859344  0.26502561  0.21040279    -0.51800
O104        O  0.27519310  0.21906679  0.24230003    -0.96500
O105        O  0.23177392  0.21232660  0.28935300    -0.53700
O106        O  0.22378192  0.21274987  0.23973219    -0.73100
C107        C  0.20655315  0.21327363  0.22600365     0.99300
O108        O  0.17420689  0.28563919  0.19936929    -0.61900
O109        O  0.17074973  0.30705380  0.30056697    -0.56700
O110        O  0.16473604  0.26080929  0.23772323    -0.93400
O111        O  0.16341931  0.26626792  0.27564132    -0.91800
O112        O  0.19153686  0.35077079  0.26540207    -0.92100
O113        O  0.19275338  0.34312351  0.21842430    -0.90900
C114        C  0.15454505  0.25974267  0.25675369     1.18100
H115        H  0.22291309  0.32397792  0.29345603     0.34100
H116        H  0.22368928  0.30737055  0.20350770     0.44900
H117        H  0.19704630  0.24126844  0.26369250     0.38500
H118        H  0.28698957  0.26528939  0.25804066     0.34900
H119        H  0.24068222  0.36916116  0.22675070     0.26700
H120        H  0.29211734  0.25092423  0.20483882     0.32700
H121        H  0.27087668  0.22035260  0.22614049     0.38600
H122        H  0.19697712  0.36627948  0.26497867     0.33000
H123        H  0.16784699  0.30253092  0.31637620     0.31900
H124        H  0.20643676  0.24993894  0.32295537     0.33600
H125        H  0.23249495  0.19794926  0.28150559     0.32600
H126        H  0.17893810  0.33398548  0.22116460     0.36500
H127        H  0.16490177  0.29563224  0.20876215     0.29300
H128        H  0.30176884  0.29729722  0.31350415     0.33500
H129        H  0.27880712  0.24003024  0.29775596     0.36400
H130        H  0.17843240  0.32160780  0.30181158     0.29000
H131        H  0.18296422  0.29572049  0.18941897     0.41800
H132        H  0.25767348  0.31807683  0.18397025     0.31900
H133        H  0.24993513  0.34933430  0.21264381     0.39500
H134        H  0.21516411  0.21537266  0.29080967     0.31400
H135        H  0.30485108  0.27233204  0.19677716     0.31400
H136        H  0.30386216  0.27627490  0.29831588     0.31700
N137        N  0.16071093  0.04132698  0.19157906    -0.02800
C138        C  0.15836318  0.06064176  0.20284082    -0.00200
C139        C  0.16362712  0.05763667  0.22545847    -0.23100
C140        C  0.16984501  0.03592826  0.22813684    -0.23300
C141        C  0.16828674  0.02620024  0.20705287    -0.00300
H142        H  0.16411468  0.07011357  0.23845544     0.13500
H143        H  0.17536751  0.02827993  0.24382904     0.13500
Zr144      Zr  0.26560064  0.75999386  0.26842804     2.17500
O145        O  0.29773725  0.73948753  0.25293834    -0.50700
O146        O  0.26684700  0.74700969  0.30696970    -0.73900
O147        O  0.30081912  0.77375684  0.28427515    -0.80600
O148        O  0.21966672  0.71741971  0.25821988    -0.82400
O149        O  0.30048400  0.81134171  0.28342028    -0.78000
O150        O  0.25700519  0.72097055  0.26930619    -0.89700
O151        O  0.24003166  0.76577358  0.32683571    -0.75600
O152        O  0.25802097  0.79265666  0.28912299    -0.85100
O153        O  0.22661744  0.75744456  0.27959601    -0.84800
O154        O  0.27396604  0.79010887  0.24326804    -0.71600
O155        O  0.24463522  0.75600827  0.23369426    -0.83700
Zr156      Zr  0.20401108  0.81635312  0.24068085     2.26400
Zr157      Zr  0.26487367  0.82287906  0.26397287     2.06300
Zr158      Zr  0.20531801  0.75377243  0.24520148     2.10000
Zr159      Zr  0.21921275  0.78998481  0.30027574     1.78800
O160        O  0.20244591  0.72914511  0.21296803    -0.92500
O161        O  0.23337081  0.81427150  0.33000443    -0.40300
O162        O  0.19641437  0.78639093  0.26629289    -0.76900
O163        O  0.22547071  0.82067318  0.27521604    -0.95600
O164        O  0.24306881  0.81965757  0.22986897    -0.88900
O165        O  0.21249134  0.78389824  0.21990328    -0.91800
C166        C  0.25627684  0.75144998  0.32520873     1.02000
C167        C  0.23870012  0.70954098  0.26620464     1.14900
C168        C  0.30975329  0.79260512  0.28862085     1.05700
O169        O  0.26918364  0.84832418  0.29540178    -0.93900
O170        O  0.24987425  0.85923244  0.25200485    -0.89700
O171        O  0.21263580  0.85531480  0.24062967    -0.82800
C172        C  0.23063143  0.86699391  0.24442253     1.12300
O173        O  0.28382576  0.76605239  0.19537211    -0.95900
Zr174      Zr  0.25147654  0.78726354  0.20930147     1.88900
O175        O  0.20410825  0.83077240  0.20262195    -0.72500
O176        O  0.29711430  0.83850974  0.24337543    -0.51800
O177        O  0.28114309  0.81044092  0.19267424    -0.96500
O178        O  0.24039799  0.76349749  0.17796937    -0.53700
O179        O  0.23148543  0.81223834  0.18330091    -0.73100
C180        C  0.21538506  0.82667440  0.18471355     0.99300
O181        O  0.17134122  0.83578574  0.25647518    -0.61900
O182        O  0.17338567  0.73566405  0.26413069    -0.56700
O183        O  0.16808722  0.80301277  0.22493184    -0.93400
O184        O  0.16888881  0.76543363  0.22728635    -0.91800
O185        O  0.18921117  0.76906514  0.31925716    -0.92100
O186        O  0.18830726  0.81338129  0.31378427    -0.90900
C187        C  0.15923329  0.78385942  0.22155027     1.18100
H188        H  0.22397856  0.74491024  0.28939560     0.34100
H189        H  0.22103157  0.83422057  0.28250668     0.44900
H190        H  0.20310778  0.78285078  0.20641745     0.38500
H191        H  0.29006974  0.79009130  0.23959739     0.34900
H192        H  0.25027483  0.81259240  0.32980790     0.26700
H193        H  0.29004755  0.84817139  0.23168652     0.32700
H194        H  0.27605914  0.82579459  0.19541515     0.38600
H195        H  0.19282582  0.75336175  0.31636097     0.33000
H196        H  0.17986063  0.73056013  0.27877223     0.31900
H197        H  0.19339445  0.71637937  0.21849823     0.33600
H198        H  0.24579766  0.77143315  0.16434226     0.32600
H199        H  0.17550276  0.81102543  0.30295373     0.36500
H200        H  0.16254855  0.82422220  0.26455942     0.29300
H201        H  0.30570962  0.73295446  0.26623125     0.33500
H202        H  0.28741274  0.75537773  0.20763978     0.36400
H203        H  0.16284966  0.74780522  0.26818859     0.29000
H204        H  0.17794784  0.84502908  0.26864417     0.41800
H205        H  0.28436225  0.85534081  0.29315312     0.31900
H206        H  0.23064064  0.82946127  0.32426203     0.39500
H207        H  0.22345581  0.76444531  0.17699469     0.31400
H208        H  0.30450101  0.84885816  0.25410166     0.31400
H209        H  0.30846247  0.75088503  0.24721190     0.31700
Zr210      Zr  0.76028728  0.27273065  0.21771112     2.17500
O211        O  0.78860550  0.28975774  0.19305903    -0.50700
O212        O  0.76863645  0.23424755  0.21182214    -0.73900
O213        O  0.79823185  0.26453525  0.23179004    -0.80600
O214        O  0.71276791  0.27708843  0.17419099    -0.82400
O215        O  0.79712618  0.26507227  0.27011866    -0.78000
O216        O  0.75042534  0.26770164  0.17844479    -0.89700
O217        O  0.74322921  0.21404950  0.23233579    -0.75600
O218        O  0.75526166  0.25411929  0.25268199    -0.85100
O219        O  0.72272300  0.25717278  0.21678975    -0.84800
O220        O  0.76643460  0.30041753  0.24588938    -0.71600
O221        O  0.73519559  0.30347540  0.21138533    -0.83700
Zr222      Zr  0.69760068  0.29697078  0.27453897     2.26400
Zr223      Zr  0.76045986  0.28138087  0.28096878     2.06300
Zr224      Zr  0.69733082  0.28771448  0.21114261     2.10000
Zr225      Zr  0.71775297  0.23902589  0.25199393     1.78800
O226        O  0.68678872  0.31567254  0.18318524    -0.92500
O227        O  0.73304567  0.21399034  0.28084840    -0.40300
O228        O  0.69147895  0.26915593  0.24653404    -0.76900
O229        O  0.72247076  0.26604952  0.28110017    -0.95600
O230        O  0.73527277  0.31208780  0.27559801    -0.88900
O231        O  0.70263487  0.31536782  0.23929458    -0.91800
C232        C  0.76043577  0.21593664  0.21905273     1.02000
C233        C  0.73208295  0.27005347  0.16652142     1.14900
C234        C  0.80717661  0.26111777  0.25133471     1.05700
O235        O  0.76648325  0.25253772  0.30929410    -0.93900
O236        O  0.74699196  0.29583560  0.31685344    -0.89700
O237        O  0.70875011  0.30303679  0.31340286    -0.82800
C238        C  0.72764544  0.30233551  0.32471011     1.12300
O239        O  0.77251926  0.34681485  0.22077968    -0.95900
Zr240      Zr  0.74012061  0.33051249  0.24052257     1.88900
O241        O  0.68958262  0.33558964  0.28065800    -0.72500
O242        O  0.79264637  0.30352773  0.29442418    -0.51800
O243        O  0.76398928  0.35505460  0.26321603    -0.96500
O244        O  0.72775503  0.35280365  0.20824543    -0.53700
O245        O  0.71522684  0.35603039  0.26063524    -0.73100
C246        C  0.69806018  0.35401048  0.27399482     0.99300
O247        O  0.66925017  0.28030383  0.29943568    -0.61900
O248        O  0.66896170  0.26124031  0.19751754    -0.56700
O249        O  0.65923165  0.30391126  0.26085316    -0.93400
O250        O  0.65974826  0.30247548  0.22246469    -0.91800
O251        O  0.69248893  0.21583916  0.22923829    -0.92100
O252        O  0.68645922  0.22324556  0.27384705    -0.90900
C253        C  0.64987904  0.30667951  0.24136610     1.18100
H254        H  0.72105040  0.24646995  0.20487126     0.34100
H255        H  0.71929456  0.25956876  0.29567188     0.44900
H256        H  0.69168311  0.32714239  0.23694160     0.38500
H257        H  0.78204282  0.30587410  0.24523725     0.34900
H258        H  0.74987555  0.21627466  0.28046619     0.26700
H259        H  0.78673413  0.31886015  0.29452996     0.32700
H260        H  0.76009507  0.35144475  0.27904704     0.38600
H261        H  0.69590387  0.20053584  0.23427288     0.33000
H262        H  0.67809803  0.24876557  0.19168584     0.31900
H263        H  0.67476891  0.30854363  0.17379793     0.33600
H264        H  0.72753286  0.36815570  0.21390956     0.32600
H265        H  0.68465905  0.23335704  0.28676841     0.36500
H266        H  0.66111033  0.26934954  0.28992481     0.29300
H267        H  0.79892016  0.27754807  0.18867138     0.33500
H268        H  0.77620265  0.33603292  0.20886127     0.36400
H269        H  0.66175407  0.25528346  0.21135078     0.29000
H270        H  0.67822937  0.27120081  0.31030251     0.41800
H271        H  0.78319051  0.25279739  0.31252649     0.31900
H272        H  0.72834167  0.22031327  0.29545062     0.39500
H273        H  0.71138691  0.34897231  0.20589888     0.31400
H274        H  0.79442612  0.29945441  0.31055786     0.31400
H275        H  0.79810573  0.29917945  0.20307456     0.31700
Zr276      Zr  0.69312262  0.76111672  0.27605897     2.17500
O277        O  0.65868029  0.73927359  0.26868758    -0.50700
O278        O  0.69773387  0.75289825  0.31576533    -0.73900
O279        O  0.70240650  0.72239324  0.27744193    -0.80600
O280        O  0.65949964  0.81330746  0.28889166    -0.82400
O281        O  0.73533724  0.71674621  0.25794274    -0.78000
O282        O  0.65925022  0.77591948  0.29316287    -0.89700
O283        O  0.72988904  0.77071512  0.32784101    -0.75600
O284        O  0.73359448  0.75836829  0.28056986    -0.85100
O285        O  0.70494790  0.79523231  0.29214887    -0.84800
O286        O  0.70771167  0.75408039  0.23914346    -0.71600
O287        O  0.68033800  0.78881580  0.24982753    -0.83700
Zr288      Zr  0.74850278  0.81462482  0.23328433     2.26400
Zr289      Zr  0.74875593  0.75268891  0.24367429     2.06300
Zr290      Zr  0.69300945  0.82305991  0.26578290     2.10000
Zr291      Zr  0.74531336  0.79243026  0.29648593     1.78800
O292        O  0.65954217  0.83915769  0.24702996    -0.92500
O293        O  0.77792319  0.77031054  0.30926461    -0.40300
O294        O  0.73394596  0.82118654  0.27045336    -0.76900
O295        O  0.76128005  0.78691794  0.25973480    -0.95600
O296        O  0.73680997  0.78047265  0.21728995    -0.88900
O297        O  0.70787573  0.81688715  0.22888820    -0.91800
C298        C  0.71246105  0.75805608  0.33105034     1.02000
C299        C  0.65077616  0.79514823  0.29648737     1.14900
C300        C  0.71836798  0.70995863  0.26997452     1.05700
O301        O  0.78155429  0.73664002  0.26368024    -0.93900
O302        O  0.78246431  0.76327388  0.22087475    -0.89700
O303        O  0.78304951  0.80061328  0.21593308    -0.82800
C304        C  0.79163836  0.78127739  0.21328974     1.12300
O305        O  0.66159937  0.76095078  0.20654805    -0.95900
Zr306      Zr  0.69625766  0.78259551  0.21325581     1.88900
O307        O  0.74347157  0.82172188  0.19325314    -0.72500
O308        O  0.74939179  0.72629160  0.21284391    -0.51800
O309        O  0.70330521  0.75328688  0.18624121    -0.96500
O310        O  0.66390508  0.80334150  0.19752212    -0.53700
O311        O  0.71236587  0.80219840  0.18123344    -0.73100
C312        C  0.72939657  0.81522038  0.17787272     0.99300
O313        O  0.78201315  0.83743998  0.24176350    -0.61900
O314        O  0.69293850  0.84972410  0.29638366    -0.56700
O315        O  0.73904647  0.85338803  0.23177745    -0.93400
O316        O  0.70646657  0.85902707  0.25182860    -0.91800
O317        O  0.73989383  0.81817305  0.32737434    -0.92100
O318        O  0.77820021  0.81627032  0.30398050    -0.90900
C319        C  0.72332598  0.86586385  0.23971501     1.18100
H320        H  0.69804328  0.79762169  0.30669288     0.34100
H321        H  0.77785521  0.78709674  0.26091871     0.44900
H322        H  0.70354005  0.82877710  0.21876023     0.38500
H323        H  0.70202890  0.74004029  0.23373351     0.34900
H324        H  0.78088873  0.77517845  0.32494832     0.26700
H325        H  0.75248823  0.73530629  0.19919604     0.32700
H326        H  0.69582769  0.75844181  0.17208096     0.38600
H327        H  0.73551885  0.83226973  0.31992146     0.33000
H328        H  0.67733807  0.85620918  0.29592611     0.31900
H329        H  0.64925942  0.82645127  0.24399678     0.33600
H330        H  0.66690904  0.80449739  0.18114259     0.32600
H331        H  0.78536198  0.81860190  0.28908280     0.36500
H332        H  0.77729780  0.84684181  0.25451722     0.29300
H333        H  0.65735919  0.72912812  0.28180309     0.33500
H334        H  0.65301411  0.76180063  0.22085423     0.36400
H335        H  0.69327206  0.84064582  0.31034781     0.29000
H336        H  0.79342109  0.82717985  0.24855190     0.41800
H337        H  0.79374809  0.73521484  0.25227447     0.31900
H338        H  0.77175272  0.75513175  0.31091086     0.39500
H339        H  0.66585777  0.81858402  0.20318891     0.31400
H340        H  0.76363097  0.71766715  0.21540352     0.31400
H341        H  0.66262159  0.72962029  0.25587117     0.31700
N342        N  0.17583616  0.19138906  0.00411708    -0.02800
C343        C  0.19174062  0.19258106  0.02103458    -0.00200
C344        C  0.21362007  0.19209126  0.01209464    -0.23100
C345        C  0.21113098  0.19107697  0.98916392    -0.23300
C346        C  0.18778778  0.19104163  0.98447752    -0.00300
H347        H  0.22979367  0.19428254  0.02092368     0.13500
H348        H  0.22499962  0.19263808  0.97724352     0.13500
Zr349      Zr  0.19216258  0.26747316  0.78087507     2.17500
O350        O  0.16243502  0.28313827  0.80457212    -0.50700
O351        O  0.18829318  0.22899001  0.79150211    -0.73900
O352        O  0.15562797  0.25519639  0.76590643    -0.80600
O353        O  0.24147502  0.26885335  0.82293835    -0.82400
O354        O  0.15476549  0.26083951  0.72790042    -0.78000
O355        O  0.20271848  0.26417143  0.82012791    -0.89700
O356        O  0.21106383  0.20917997  0.76818153    -0.75600
O357        O  0.19562635  0.25097103  0.74490784    -0.85100
O358        O  0.22954311  0.25176799  0.78011672    -0.84800
O359        O  0.18545318  0.29663939  0.75392768    -0.71600
O360        O  0.21818437  0.29749138  0.78747166    -0.83700
Zr361      Zr  0.25395852  0.29369886  0.72329767     2.26400
Zr362      Zr  0.19049400  0.27978077  0.71763725     2.06300
Zr363      Zr  0.25590110  0.28146698  0.78593667     2.10000
Zr364      Zr  0.23252919  0.23493154  0.74428357     1.78800
O365        O  0.26879770  0.30702810  0.81498200    -0.92500
O366        O  0.21156329  0.21073155  0.71858292    -0.40300
O367        O  0.25998562  0.26426292  0.74987219    -0.76900
O368        O  0.22804597  0.26359670  0.71627670    -0.95600
O369        O  0.21660632  0.30952394  0.72378316    -0.88900
O370        O  0.24993869  0.31055614  0.75916861    -0.91800
C371        C  0.19651239  0.21075448  0.78429899     1.02000
C372        C  0.22170071  0.26381976  0.83126789     1.14900
C373        C  0.14603419  0.25352002  0.74639847     1.05700
O374        O  0.18295446  0.25451840  0.68660296    -0.93900
O375        O  0.20394825  0.29745435  0.68271533    -0.89700
O376        O  0.24280031  0.30097233  0.68484255    -0.82800
C377        C  0.22352258  0.30308727  0.67447516     1.12300
O378        O  0.18566121  0.34172852  0.78628678    -0.95900
Zr379      Zr  0.21259374  0.32599669  0.75964228     1.88900
O380        O  0.26075392  0.33249341  0.71584358    -0.72500
O381        O  0.15930206  0.30403318  0.70541834    -0.51800
O382        O  0.18286585  0.34848955  0.74169511    -0.96500
O383        O  0.23063474  0.35125619  0.78639742    -0.53700
O384        O  0.23404747  0.35134137  0.73572115    -0.73100
C385        C  0.25090571  0.35037688  0.72191616     0.99300
O386        O  0.28184323  0.27641303  0.69864076    -0.61900
O387        O  0.28356073  0.25250474  0.79514314    -0.56700
O388        O  0.29258555  0.30156380  0.73590534    -0.93400
O389        O  0.29332192  0.29691066  0.77405213    -0.91800
O390        O  0.26254036  0.21226409  0.76153794    -0.92100
O391        O  0.25750616  0.21848657  0.71633433    -0.90900
C392        C  0.30268993  0.30259646  0.75518777     1.18100
H393        H  0.23174481  0.24075048  0.79180446     0.34100
H394        H  0.23078207  0.25764977  0.70147057     0.44900
H395        H  0.26096923  0.32229959  0.76138005     0.38500
H396        H  0.17001140  0.30217085  0.75533546     0.34900
H397        H  0.21597144  0.19556487  0.72327333     0.26700
H398        H  0.15038688  0.29515861  0.69440985     0.32700
H399        H  0.18071981  0.34195784  0.72654828     0.38600
H400        H  0.25705969  0.20896612  0.77696153     0.33000
H401        H  0.29654939  0.25492490  0.78475734     0.31900
H402        H  0.28088011  0.29886605  0.82343408     0.33600
H403        H  0.24398475  0.35763568  0.77844602     0.32600
H404        H  0.27046642  0.22898988  0.71497460     0.36500
H405        H  0.29068821  0.26627794  0.70862528     0.29300
H406        H  0.15252890  0.27045749  0.80871745     0.33500
H407        H  0.18885791  0.33391124  0.80071578     0.36400
H408        H  0.28970161  0.25649057  0.81020989     0.29000
H409        H  0.27268176  0.26645065  0.68888104     0.41800
H410        H  0.19370235  0.24205910  0.68907081     0.31900
H411        H  0.19526594  0.21203990  0.72298283     0.39500
H412        H  0.23747969  0.34151043  0.79814386     0.31400
H413        H  0.14913000  0.30528144  0.71862690     0.31400
H414        H  0.15285374  0.29222984  0.79420790     0.31700
Zr415      Zr  0.19804217  0.78930662  0.78257976     2.17500
O416        O  0.16952385  0.77342797  0.80774786    -0.50700
O417        O  0.19297287  0.82805610  0.79039030    -0.73900
O418        O  0.21064121  0.79753554  0.82060971    -0.80600
O419        O  0.15829423  0.79195719  0.73159665    -0.82400
O420        O  0.24940765  0.79298283  0.82230369    -0.78000
O421        O  0.15982290  0.79855250  0.76937663    -0.89700
O422        O  0.21634876  0.84748609  0.76697367    -0.75600
O423        O  0.23524512  0.80529753  0.78054076    -0.85100
O424        O  0.20109555  0.80508607  0.74582678    -0.84800
O425        O  0.22414462  0.75948306  0.79040467    -0.71600
O426        O  0.19156116  0.75905662  0.75725651    -0.83700
Zr427      Zr  0.25880639  0.76201943  0.72483136     2.26400
Zr428      Zr  0.26159459  0.77570498  0.78716128     2.06300
Zr429      Zr  0.19506514  0.77517747  0.72032028     2.10000
Zr430      Zr  0.23791932  0.82120051  0.74402990     1.78800
O431        O  0.16517313  0.74813344  0.71217341    -0.92500
O432        O  0.26855190  0.84355964  0.76042175    -0.40300
O433        O  0.23248327  0.79178050  0.71733403    -0.76900
O434        O  0.26532349  0.79207695  0.75031152    -0.95600
O435        O  0.25620240  0.74610707  0.76140368    -0.88900
O436        O  0.22166506  0.74568471  0.72710595    -0.91800
C437        C  0.20132745  0.84615537  0.78273650     1.02000
C438        C  0.14959085  0.79921382  0.75009610     1.14900
C439        C  0.23015582  0.79910155  0.83073086     1.05700
O440        O  0.29259124  0.79899333  0.80131433    -0.93900
O441        O  0.29915462  0.76174608  0.77557169    -0.89700
O442        O  0.29745559  0.75475892  0.73793129    -0.82800
C443        C  0.30803222  0.75507279  0.75700678     1.12300
O444        O  0.19071245  0.71496195  0.78945778    -0.95900
Zr445      Zr  0.21919375  0.73004796  0.76376972     1.88900
O446        O  0.26733171  0.72322909  0.72090044    -0.72500
O447        O  0.26889279  0.74659901  0.81490144    -0.51800
O448        O  0.23662584  0.70813635  0.79400358    -0.96500
O449        O  0.19341564  0.70381907  0.74536086    -0.53700
O450        O  0.24438505  0.70396753  0.74482847    -0.73100
C451        C  0.26046658  0.70526891  0.73016324     0.99300
O452        O  0.28740274  0.77644410  0.69879295    -0.61900
O453        O  0.18375640  0.79923659  0.68903226    -0.56700
O454        O  0.24655402  0.75403709  0.68670860    -0.93400
O455        O  0.20802814  0.76002247  0.68414118    -0.91800
O456        O  0.21805377  0.84625089  0.71809416    -0.92100
O457        O  0.26305196  0.83623765  0.71513579    -0.90900
C458        C  0.22732126  0.75353696  0.67597955     1.18100
H459        H  0.19019191  0.81686719  0.74327016     0.34100
H460        H  0.28068783  0.79782517  0.74845669     0.44900
H461        H  0.21972201  0.73400184  0.71622807     0.38500
H462        H  0.22187060  0.75393788  0.80556805     0.34900
H463        H  0.26124962  0.85786105  0.76402445     0.26700
H464        H  0.27575234  0.73442897  0.80614762     0.32700
H465        H  0.23373457  0.69258472  0.78968955     0.38600
H466        H  0.21633881  0.83778047  0.70393789     0.33000
H467        H  0.16920249  0.79281672  0.68328810     0.31900
H468        H  0.16305539  0.74881922  0.69558511     0.33600
H469        H  0.19929843  0.70215210  0.72985260     0.32600
H470        H  0.26977074  0.82309037  0.70787606     0.36500
H471        H  0.27861152  0.78541950  0.68767800     0.29300
H472        H  0.16508869  0.78571705  0.81775456     0.33500
H473        H  0.18066610  0.72763744  0.79298015     0.36400
H474        H  0.17916149  0.81327174  0.69619182     0.29000
H475        H  0.29625250  0.78743793  0.70762851     0.41800
H476        H  0.29950806  0.79043320  0.81395731     0.31900
H477        H  0.27176660  0.83662173  0.77530026     0.39500
H478        H  0.17876931  0.71192872  0.74339947     0.31400
H479        H  0.28172579  0.75227508  0.82428941     0.31400
H480        H  0.17827049  0.76314446  0.81764731     0.31700
Zr481      Zr  0.77273661  0.27752866  0.78222253     2.17500
O482        O  0.80299282  0.29535751  0.80428214    -0.50700
O483        O  0.77735339  0.23978422  0.79501322    -0.73900
O484        O  0.76267048  0.27452847  0.82131897    -0.80600
O485        O  0.80980995  0.26859303  0.73092707    -0.82400
O486        O  0.72387780  0.27756386  0.82371007    -0.78000
O487        O  0.81039227  0.26773390  0.76936754    -0.89700
O488        O  0.75329119  0.21846484  0.77388481    -0.75600
O489        O  0.73533395  0.26203768  0.78349775    -0.85100
O490        O  0.76743356  0.25748878  0.74816249    -0.84800
O491        O  0.74760824  0.30843320  0.78699512    -0.71600
O492        O  0.77862691  0.30391573  0.75257411    -0.83700
Zr493      Zr  0.70992321  0.29913376  0.72345460     2.26400
Zr494      Zr  0.70974719  0.29241808  0.78727236     2.06300
Zr495      Zr  0.77264137  0.28368535  0.71834773     2.10000
Zr496      Zr  0.73010460  0.24228614  0.74946374     1.78800
O497        O  0.80250454  0.30788660  0.70377970    -0.92500
O498        O  0.70189900  0.22195275  0.77155572    -0.40300
O499        O  0.73479596  0.26801591  0.71879528    -0.76900
O500        O  0.70367291  0.27245374  0.75281227    -0.95600
O501        O  0.71495659  0.31885255  0.75765074    -0.88900
O502        O  0.74743961  0.31453898  0.72222303    -0.91800
C503        C  0.76879444  0.22114948  0.78922086     1.02000
C504        C  0.81954572  0.26437121  0.75011004     1.14900
C505        C  0.74381262  0.27279715  0.83210424     1.05700
O506        O  0.67959830  0.26807971  0.80104998    -0.93900
O507        O  0.67253491  0.30750568  0.77472772    -0.89700
O508        O  0.67214920  0.30796297  0.73634440    -0.82800
C509        C  0.66279539  0.31134343  0.75546451     1.12300
O510        O  0.78555706  0.34932103  0.77641616    -0.95900
Zr511      Zr  0.75240490  0.33420489  0.75635635     1.88900
O512        O  0.70198322  0.33741229  0.71471346    -0.72500
O513        O  0.70084507  0.32140159  0.81415351    -0.51800
O514        O  0.73995228  0.35970502  0.78537545    -0.96500
O515        O  0.77631467  0.35779490  0.73264073    -0.53700
O516        O  0.72606435  0.35863788  0.73585461    -0.73100
C517        C  0.70939136  0.35609979  0.72170302     0.99300
O518        O  0.68074417  0.28211126  0.69941269    -0.61900
O519        O  0.78210131  0.25363316  0.69289366    -0.56700
O520        O  0.71968572  0.30266931  0.68427484    -0.93400
O521        O  0.75770233  0.29483436  0.68093416    -0.91800
O522        O  0.74658027  0.21352311  0.72611912    -0.92100
O523        O  0.70267517  0.22547019  0.72348117    -0.90900
C524        C  0.73809844  0.30102653  0.67277885     1.18100
H525        H  0.77814446  0.24539127  0.74703815     0.34100
H526        H  0.68806147  0.26702479  0.75200555     0.44900
H527        H  0.74895811  0.32479569  0.70978028     0.38500
H528        H  0.75092570  0.31560065  0.80119417     0.34900
H529        H  0.70558935  0.22561196  0.78744681     0.26700
H530        H  0.71565190  0.32496306  0.82162702     0.32700
H531        H  0.74547521  0.37436732  0.78023247     0.38600
H532        H  0.75804867  0.22126882  0.71671519     0.33000
H533        H  0.76943455  0.25317887  0.68164184     0.31900
H534        H  0.79516230  0.32261415  0.70271413     0.33600
H535        H  0.77440021  0.37284836  0.73880299     0.32600
H536        H  0.69569151  0.23808591  0.71522360     0.36500
H537        H  0.68920035  0.27165714  0.68977211     0.29300
H538        H  0.80517526  0.28599252  0.81790554     0.33500
H539        H  0.79737205  0.33759106  0.77584863     0.36400
H540        H  0.79553572  0.25907888  0.68438148     0.29000
H541        H  0.67178347  0.27248892  0.70965350     0.41800
H542        H  0.67356514  0.27564669  0.81450846     0.31900
H543        H  0.68708630  0.22945025  0.76848196     0.39500
H544        H  0.76848898  0.35841705  0.71774593     0.31400
H545        H  0.69738680  0.33454651  0.80466327     0.31400
H546        H  0.79594765  0.30912933  0.80988783     0.31700
Zr547      Zr  0.75249276  0.81356015  0.78404715     2.17500
O548        O  0.74132259  0.83577622  0.81627915    -0.50700
O549        O  0.79269621  0.82300202  0.78127561    -0.73900
O550        O  0.76928573  0.80027079  0.81875456    -0.80600
O551        O  0.73792892  0.85520640  0.73849362    -0.82400
O552        O  0.76339995  0.76314605  0.82160502    -0.78000
O553        O  0.75418531  0.85202663  0.77341724    -0.89700
O554        O  0.80806610  0.80181284  0.75375636    -0.75600
O555        O  0.76962770  0.77872994  0.77710332    -0.85100
O556        O  0.76040193  0.81339415  0.74477792    -0.84800
O557        O  0.72510437  0.78644970  0.79592055    -0.71600
O558        O  0.71591824  0.81939915  0.76609216    -0.83700
Zr559      Zr  0.71401587  0.75634604  0.72989405     2.26400
Zr560      Zr  0.74211929  0.75131381  0.78775796     2.06300
Zr561      Zr  0.72402512  0.81850702  0.72652464     2.10000
Zr562      Zr  0.77760854  0.77857710  0.73801110     1.78800
O563        O  0.68963346  0.84130353  0.72352189    -0.92500
O564        O  0.80669296  0.75290892  0.75212823    -0.40300
O565        O  0.74160253  0.78354863  0.71846294    -0.76900
O566        O  0.75043587  0.75043625  0.74820406    -0.95600
O567        O  0.70600103  0.75624337  0.76907086    -0.88900
O568        O  0.69661558  0.79105493  0.73729081    -0.91800
C569        C  0.80949852  0.81667414  0.76909799     1.02000
C570        C  0.74831071  0.86329981  0.75591075     1.14900
C571        C  0.77132746  0.78166072  0.82903997     1.05700
O572        O  0.77330415  0.72469980  0.79126737    -0.93900
O573        O  0.72563788  0.71524490  0.77710907    -0.89700
O574        O  0.71162857  0.71819583  0.74124617    -0.82800
C575        C  0.71581141  0.70719028  0.75936090     1.12300
O576        O  0.67599683  0.81633741  0.80551753    -0.95900
Zr577      Zr  0.68908179  0.79096905  0.77661413     1.88900
O578        O  0.67369807  0.74664452  0.73290329    -0.72500
O579        O  0.72179525  0.73800628  0.82090117    -0.51800
O580        O  0.67752414  0.77375440  0.81202625    -0.96500
O581        O  0.65733110  0.81471881  0.76459372    -0.53700
O582        O  0.66007905  0.76501127  0.76329222    -0.73100
C583        C  0.65794159  0.75108147  0.74716192     0.99300
O584        O  0.72519959  0.73158136  0.69960948    -0.61900
O585        O  0.74210573  0.83645772  0.69433980    -0.56700
O586        O  0.69910056  0.76906527  0.69410039    -0.93400
O587        O  0.70689536  0.80581728  0.69078610    -0.91800
O588        O  0.79328249  0.79562437  0.70412090    -0.92100
O589        O  0.78954157  0.75273950  0.70908722    -0.90900
C590        C  0.69872505  0.78744528  0.68322561     1.18100
H591        H  0.77080439  0.82511592  0.74054430     0.34100
H592        H  0.75644606  0.73610331  0.74425650     0.44900
H593        H  0.68253147  0.79272654  0.72869954     0.38500
H594        H  0.72275277  0.78770808  0.81199560     0.34900
H595        H  0.82131876  0.75844264  0.74584524     0.26700
H596        H  0.70635946  0.73385533  0.81518355     0.32700
H597        H  0.66709538  0.76155291  0.80765150     0.38600
H598        H  0.79870536  0.81038426  0.70894583     0.33000
H599        H  0.73519139  0.85139594  0.69355177     0.31900
H600        H  0.69397011  0.85577249  0.73000624     0.33600
H601        H  0.64413815  0.80983873  0.77379523     0.32600
H602        H  0.77536620  0.74964118  0.70030661     0.36500
H603        H  0.73248610  0.74123306  0.68817063     0.29300
H604        H  0.72888046  0.84550257  0.81053335     0.33500
H605        H  0.68492040  0.83004644  0.80294893     0.36400
H606        H  0.75819897  0.83900681  0.69921084     0.29000
H607        H  0.73811158  0.72280536  0.70594379     0.41800
H608        H  0.76740837  0.71312934  0.80159750     0.31900
H609        H  0.80795435  0.75590066  0.76850224     0.39500
H610        H  0.65327959  0.80997947  0.74910823     0.31400
H611        H  0.72923655  0.72375183  0.82477913     0.31400
H612        H  0.75447269  0.84581288  0.81907829     0.31700
N613        N  0.48331979  0.67479238  0.71474093    -0.02800
C614        C  0.50297235  0.67575433  0.72741723    -0.00200
C615        C  0.49768912  0.68014991  0.74968308    -0.23100
C616        C  0.47443278  0.68264032  0.75067309    -0.23300
C617        C  0.46589459  0.67962230  0.72902037    -0.00300
H618        H  0.50951851  0.68364032  0.76339811     0.13500
H619        H  0.46516490  0.68813143  0.76533516     0.13500
N620        N  0.31611030  0.52673960  0.69880090    -0.02800
C621        C  0.30995881  0.50913668  0.71158912    -0.00200
C622        C  0.30671199  0.51540678  0.73369632    -0.23100
C623        C  0.31058110  0.53775903  0.73447488    -0.23300
C624        C  0.31585076  0.54449773  0.71272338    -0.00300
H625        H  0.30067601  0.50510031  0.74741791     0.13500
H626        H  0.30737745  0.54822529  0.74884241     0.13500
N627        N  0.48269727  0.37479025  0.70981973    -0.02800
C628        C  0.50251423  0.37265907  0.72221933    -0.00200
C629        C  0.49755709  0.36636949  0.74412863    -0.23100
C630        C  0.47433932  0.36407872  0.74536763    -0.23300
C631        C  0.46544754  0.36913380  0.72420314    -0.00300
H632        H  0.50967467  0.36183208  0.75733613     0.13500
H633        H  0.46521924  0.35766305  0.75982143     0.13500
N634        N  0.64372300  0.53517268  0.70975062    -0.02800
C635        C  0.64572897  0.51520478  0.72035156    -0.00200
C636        C  0.64879958  0.51812505  0.74331105    -0.23100
C637        C  0.64969512  0.54044385  0.74691398    -0.23300
C638        C  0.64694773  0.55065802  0.72604002    -0.00300
H639        H  0.65273936  0.50548430  0.75577599     0.13500
H640        H  0.65413797  0.54807503  0.76282220     0.13500
N641        N  0.48405104  0.39560017  0.28940872    -0.02800
C642        C  0.50296988  0.39424137  0.27623152    -0.00200
C643        C  0.49648199  0.39445880  0.25367457    -0.23100
C644        C  0.47303174  0.39495867  0.25294841    -0.23300
C645        C  0.46559015  0.39508764  0.27510118    -0.00300
H646        H  0.50729321  0.39182222  0.23920309     0.13500
H647        H  0.46285307  0.39277411  0.23777005     0.13500
N648        N  0.65485174  0.53475637  0.31339763    -0.02800
C649        C  0.65598067  0.51682698  0.29978040    -0.00200
C650        C  0.66399726  0.52299460  0.27871988    -0.23100
C651        C  0.66859377  0.54519216  0.27965028    -0.23300
C652        C  0.66319213  0.55194432  0.30120829    -0.00300
H653        H  0.66804470  0.51223070  0.26480042     0.13500
H654        H  0.67592411  0.55515731  0.26629497     0.13500
N655        N  0.47962599  0.74545722  0.37497975    -0.02800
C656        C  0.49679112  0.76075023  0.37518533    -0.00200
C657        C  0.48771686  0.78184648  0.37608861    -0.23100
C658        C  0.46438935  0.77957786  0.37576612    -0.23300
C659        C  0.45963885  0.75714787  0.37457568    -0.00300
H660        H  0.49678418  0.79740560  0.37477890     0.13500
H661        H  0.45236286  0.79310328  0.37385361     0.13500
N662        N  0.28446084  0.53717577  0.34042924    -0.02800
C663        C  0.27174544  0.51825873  0.33987178    -0.00200
C664        C  0.24864325  0.52331613  0.33841484    -0.23100
C665        C  0.24706623  0.54587481  0.33721767    -0.23300
C666        C  0.26928781  0.55415409  0.33813539    -0.00300
H667        H  0.23452073  0.51188769  0.33610445     0.13500
H668        H  0.23135198  0.55491065  0.33399024     0.13500
N669        N  0.64681965  0.72660508  0.50776151    -0.02800
C670        C  0.66174768  0.73020471  0.49069067    -0.00200
C671        C  0.67936238  0.74397858  0.49770812    -0.23100
C672        C  0.67508726  0.74915734  0.51970135    -0.23300
C673        C  0.65498351  0.73840921  0.52558106    -0.00300
H674        H  0.69350281  0.75014668  0.48775960     0.13500
H675        H  0.68563866  0.75962235  0.53032805     0.13500
N676        N  0.68695445  0.37315751  0.49920088    -0.02800
C677        C  0.70051198  0.37279353  0.48072423    -0.00200
C678        C  0.72337061  0.37446922  0.48714661    -0.23100
C679        C  0.72391778  0.37510882  0.51020931    -0.23300
C680        C  0.70136342  0.37373861  0.51739220    -0.00300
H681        H  0.73830853  0.37309465  0.47655298     0.13500
H682        H  0.73940530  0.37410846  0.52038175     0.13500
N683        N  0.28014079  0.68062197  0.50514358    -0.02800
C684        C  0.26865489  0.68065257  0.48504973    -0.00200
C685        C  0.24527476  0.67908011  0.48867814    -0.23100
C686        C  0.24224254  0.67908153  0.51158756    -0.23300
C687        C  0.26389162  0.68054629  0.52144135    -0.00300
H688        H  0.23166555  0.68048907  0.47618338     0.13500
H689        H  0.22578903  0.68018990  0.51978473     0.13500
N690        N  0.27662408  0.37753454  0.50520151    -0.02800
C691        C  0.26461707  0.37528006  0.48550472    -0.00200
C692        C  0.24133306  0.37379206  0.48994111    -0.23100
C693        C  0.23894938  0.37461860  0.51282491    -0.23300
C694        C  0.26082592  0.37658527  0.52193121    -0.00300
H695        H  0.22762731  0.37008038  0.47808770     0.13500
H696        H  0.22307564  0.37184325  0.52174059     0.13500
O697        O  0.91730098  0.98822609  0.00661318    -0.85800
O698        O  0.04752953  0.99501709  0.00661998    -0.86000
O699        O  0.98506960  0.96778786  0.96715870    -0.87600
O700        O  0.98439468  0.96188592  0.04132012    -0.86400
O701        O  0.98404643  0.98682697  0.07042801    -0.86000
O702        O  0.98402398  0.99682037  0.94198962    -0.87400
O703        O  0.02188810  0.96625904  0.00403336    -0.85800
O704        O  0.94702944  0.96352825  0.00346718    -0.85400
Zr705      Zr  0.98353800  0.98277410  0.00572559     2.84300
O706        O  0.00537633  0.00437343  0.03069017    -1.07400
O707        O  0.95891704  0.00577147  0.98464706    -1.08100
C708        C  0.92552711  0.96848489  0.00433852     1.07300
C709        C  0.04245260  0.97438586  0.00437004     1.07200
C710        C  0.98542267  0.97599926  0.94689198     1.10200
C711        C  0.98465750  0.96693451  0.06253072     1.08000
H712        H  0.01526599  0.00016203  0.97519505     0.33600
O713        O  0.00518464  0.00813286  0.98506932    -1.28400
H714        H  0.95030898  0.99185496  0.03891173     0.33200
O715        O  0.95932935  0.00215109  0.03017246    -1.30000
O716        O  0.04414844  0.06589189  0.00987069    -0.85800
O717        O  0.91426225  0.06021659  0.00902909    -0.87300
O718        O  0.01868465  0.03264960  0.94547612    -0.85900
O719        O  0.01852665  0.02363401  0.07322227    -0.85900
O720        O  0.94430483  0.02104746  0.07302074    -0.85600
O721        O  0.94307529  0.02904402  0.94468703    -0.85500
O722        O  0.97663357  0.09325617  0.97611355    -0.85800
O723        O  0.97915967  0.08862294  0.05073354    -0.85300
O724        O  0.97931665  0.06805947  0.94738498    -0.86400
O725        O  0.98058910  0.05900539  0.07527338    -0.85500
O726        O  0.04596843  0.03216649  0.97373309    -0.85900
O727        O  0.91602386  0.02532530  0.97241701    -0.85600
O728        O  0.91580466  0.02265385  0.04602172    -0.85300
O729        O  0.04670537  0.02721385  0.04666855    -0.85700
O730        O  0.01617633  0.09261523  0.01134755    -0.86000
O731        O  0.93953360  0.08939271  0.01110599    -0.87300
Zr732      Zr  0.02686980  0.02969399  0.00993860     2.83100
Zr733      Zr  0.93484775  0.02512896  0.00921015     2.83500
Zr734      Zr  0.98087283  0.03090604  0.96355792     2.84100
Zr735      Zr  0.98123970  0.02428185  0.05442580     2.83400
Zr736      Zr  0.97862623  0.07308968  0.01226672     2.84200
O737        O  0.95676666  0.04754165  0.03340899    -1.07900
O738        O  0.00271326  0.05280970  0.98834901    -1.07400
C739        C  0.03739320  0.08612824  0.01004958     1.07300
C740        C  0.91899823  0.08108809  0.00941196     1.09900
C741        C  0.03973048  0.03255934  0.95278462     1.07400
C742        C  0.03972229  0.02486779  0.06722362     1.07800
C743        C  0.92302564  0.02107366  0.06672229     1.07400
C744        C  0.92213814  0.02695403  0.95160207     1.06900
C745        C  0.97742293  0.08795359  0.95499513     1.07400
C746        C  0.98015302  0.07997153  0.07083022     1.06900
H747        H  0.94666172  0.05935961  0.97893558     0.33600
O748        O  0.95681821  0.05029640  0.98803786    -1.29000
H749        H  0.01246224  0.05855716  0.04374815     0.33600
O750        O  0.00302317  0.04979775  0.03373297    -1.30400
O751        O  0.48530317  0.58994946  0.54617336    -0.85800
O752        O  0.49050230  0.46422301  0.53965425    -0.86000
O753        O  0.45227591  0.52613487  0.57182096    -0.87600
O754        O  0.52656853  0.52797632  0.56750428    -0.86400
O755        O  0.55231730  0.53001634  0.53844606    -0.86000
O756        O  0.42184604  0.52511497  0.54692844    -0.87400
O757        O  0.49005316  0.48986427  0.56811874    -0.85800
O758        O  0.48760000  0.56149237  0.57197651    -0.85400
Zr759      Zr  0.48801738  0.52667174  0.55104935     2.84300
O760        O  0.51049926  0.50681508  0.52560659    -1.07400
O761        O  0.46175144  0.54887984  0.53128514    -1.08100
C762        C  0.48699780  0.58224355  0.56652465     1.07300
C763        C  0.49083611  0.46980289  0.56075062     1.07200
C764        C  0.43062399  0.52579553  0.56707958     1.10200
C765        C  0.54717288  0.52900898  0.55964269     1.08000
H766        H  0.45605312  0.49355608  0.53835299     0.33600
O767        O  0.46449899  0.50366122  0.52885516    -1.28400
H768        H  0.51813041  0.56059242  0.53740801     0.33200
O769        O  0.50824736  0.55148980  0.52815472    -1.30000
O770        O  0.48551194  0.46840878  0.46476935    -0.85800
O771        O  0.47941647  0.59440309  0.47298684    -0.87300
O772        O  0.42145999  0.48882864  0.50726609    -0.85900
O773        O  0.55119948  0.49663553  0.50166919    -0.85900
O774        O  0.54736678  0.56859835  0.50290196    -0.85600
O775        O  0.41746772  0.56081882  0.51025110    -0.85500
O776        O  0.44212787  0.53146953  0.44368492    -0.85800
O777        O  0.51631314  0.53458531  0.43966557    -0.85300
O778        O  0.41717115  0.52724135  0.47317024    -0.86400
O779        O  0.54687580  0.53361475  0.46446194    -0.85500
O780        O  0.45063164  0.46384442  0.50214375    -0.85900
O781        O  0.44302221  0.58984281  0.51069129    -0.85600
O782        O  0.51848540  0.59417510  0.50637538    -0.85300
O783        O  0.52586961  0.46748953  0.50184415    -0.85700
O784        O  0.48030689  0.49718251  0.43972639    -0.86000
O785        O  0.47785170  0.56939601  0.44403519    -0.87300
Zr786      Zr  0.48721660  0.48392076  0.50316633     2.83100
Zr787      Zr  0.48194518  0.57394238  0.50847111     2.83500
Zr788      Zr  0.43835406  0.52601548  0.50895637     2.84100
Zr789      Zr  0.53063628  0.53162333  0.50262649     2.83400
Zr790      Zr  0.48066561  0.53196062  0.46045095     2.84200
O791        O  0.50445635  0.55418468  0.48289198    -1.07900
O792        O  0.46105273  0.50663076  0.48342551    -1.07400
C793        C  0.48250676  0.47639634  0.44458393     1.07300
C794        C  0.47798144  0.58934240  0.45186995     1.09900
C795        C  0.42919977  0.46902377  0.50410068     1.07400
C796        C  0.54639746  0.47579534  0.50181456     1.07800
C797        C  0.53985364  0.58861444  0.50446666     1.07400
C798        C  0.42242795  0.58163069  0.51049852     1.06900
C799        C  0.42178133  0.52945197  0.45197928     1.07400
C800        C  0.53799140  0.53447472  0.44432713     1.06900
H801        H  0.44755337  0.56046113  0.47774027     0.33600
O802        O  0.45826213  0.55133049  0.48612162    -1.29000
H803        H  0.51628601  0.50111425  0.46962235     0.33600
O804        O  0.50697626  0.50921751  0.48011445    -1.30400
C805        C  0.37317808  0.43440976  0.50704583     0.19400
C806        C  0.35739682  0.42987818  0.52421618    -0.18700
C807        C  0.33844011  0.41609897  0.52028065    -0.11000
C808        C  0.33455757  0.40679560  0.49885457     0.21600
C809        C  0.35055312  0.41106175  0.48174859    -0.20300
C810        C  0.36983278  0.42447862  0.48585226    -0.11200
C811        C  0.31263841  0.39508319  0.49327663    -0.15300
C812        C  0.30055022  0.38340597  0.50862324    -0.29200
C813        C  0.39124123  0.45150804  0.51089574    -0.03500
C814        C  0.41227835  0.45075378  0.50168814    -0.40000
H815        H  0.35941346  0.43752815  0.54059381     0.12800
H816        H  0.32619096  0.41381041  0.53370586     0.12400
H817        H  0.34780728  0.40443745  0.46499855     0.11800
H818        H  0.38140047  0.42802381  0.47210302     0.12100
H819        H  0.30557618  0.39764374  0.47646079     0.14800
H820        H  0.30798163  0.38102412  0.52531767     0.13600
H821        H  0.38707104  0.46515650  0.52195599     0.11300
H822        H  0.41731811  0.43628704  0.49217864     0.13300
C823        C  0.38198780  0.63201861  0.50705626     0.19400
C824        C  0.37340889  0.64659324  0.52324375    -0.18700
C825        C  0.35247434  0.65766721  0.51949309    -0.11000
C826        C  0.33998346  0.65463214  0.49919624     0.21600
C827        C  0.34935013  0.64081180  0.48268259    -0.20300
C828        C  0.36997294  0.62957615  0.48658184    -0.11200
C829        C  0.31655715  0.66395814  0.49476583    -0.15300
C830        C  0.30447505  0.67687091  0.50888575    -0.29200
C831        C  0.40296137  0.61865414  0.51165353    -0.03500
C832        C  0.40234367  0.59658718  0.50903863    -0.40000
H833        H  0.38245851  0.64874993  0.53913493     0.12800
H834        H  0.34606757  0.66807868  0.53274717     0.12400
H835        H  0.34033831  0.63818301  0.46684056     0.11800
H836        H  0.37643785  0.61869418  0.47367081     0.12100
H837        H  0.30795551  0.65826873  0.47953599     0.14800
H838        H  0.31205850  0.68202875  0.52473905     0.13600
H839        H  0.41858452  0.62680915  0.51731846     0.11300
H840        H  0.38596133  0.58892164  0.50482202     0.13300
C841        C  0.63016008  0.40266566  0.51063991     0.19400
C842        C  0.62584054  0.42174024  0.52327751    -0.18700
C843        C  0.60514226  0.43317971  0.52093525    -0.11000
C844        C  0.58802599  0.42589621  0.50581388     0.21600
C845        C  0.59176647  0.40625415  0.49386846    -0.20300
C846        C  0.61269924  0.39479432  0.49609423    -0.11200
C847        C  0.56638705  0.43881938  0.50251465    -0.15300
C848        C  0.56672648  0.46109208  0.50285452    -0.29200
C849        C  0.65335604  0.39230574  0.51302318    -0.03500
C850        C  0.66250147  0.37748932  0.49875734    -0.40000
H851        H  0.63874891  0.42811609  0.53481550     0.12800
H852        H  0.60256505  0.44778995  0.53104876     0.12400
H853        H  0.57871234  0.40008251  0.48238504     0.11800
H854        H  0.61505133  0.37992429  0.48638401     0.12100
H855        H  0.55037565  0.43008637  0.49939590     0.14800
H856        H  0.58321442  0.46939705  0.50444402     0.13600
H857        H  0.66454737  0.39910654  0.52600830     0.11300
H858        H  0.65245667  0.37164254  0.48451458     0.13300
C859        C  0.57177690  0.64484132  0.50908435     0.19400
C860        C  0.56715715  0.66696590  0.50323020    -0.18700
C861        C  0.58395974  0.68340361  0.50609309    -0.11000
C862        C  0.60570553  0.67805926  0.51519735     0.21600
C863        C  0.61017142  0.65602571  0.52131500    -0.20300
C864        C  0.59351727  0.63961047  0.51826454    -0.11200
C865        C  0.62406769  0.69488199  0.51896019    -0.15300
C866        C  0.62635815  0.71324431  0.50628160    -0.29200
C867        C  0.55327911  0.62784724  0.50675497    -0.03500
C868        C  0.55771689  0.60609446  0.50458265    -0.40000
H869        H  0.55047062  0.67155134  0.49646127     0.12800
H870        H  0.57969889  0.70029349  0.50163385     0.12400
H871        H  0.62668070  0.65146357  0.52852014     0.11800
H872        H  0.59760157  0.62297939  0.52376222     0.12100
H873        H  0.63756912  0.69101496  0.53114580     0.14800
H874        H  0.61453320  0.71628074  0.49233765     0.13600
H875        H  0.53555661  0.63343194  0.50688923     0.11300
H876        H  0.57536056  0.60056508  0.50319372     0.13300
C877        C  0.34022372  0.52682414  0.37395148     0.19400
C878        C  0.34380671  0.51349806  0.39313707    -0.18700
C879        C  0.36404140  0.51491348  0.40574684    -0.11000
C880        C  0.38141045  0.52987301  0.39967054     0.21600
C881        C  0.37847746  0.54255404  0.37984526    -0.20300
C882        C  0.35795778  0.54119592  0.36712719    -0.11200
C883        C  0.40250857  0.53209341  0.41396800    -0.15300
C884        C  0.40167971  0.52924185  0.43655546    -0.29200
C885        C  0.31760286  0.52474189  0.36214711    -0.03500
C886        C  0.30839401  0.53918525  0.34712948    -0.40000
H887        H  0.33069535  0.50200262  0.39864709     0.12800
H888        H  0.36603864  0.50411403  0.42027103     0.12400
H889        H  0.39182690  0.55385978  0.37450382     0.11800
H890        H  0.35609162  0.55133929  0.35212125     0.12100
H891        H  0.41862842  0.53638263  0.40596759     0.14800
H892        H  0.38516674  0.52652683  0.44446483     0.13600
H893        H  0.30680387  0.51125983  0.36793010     0.11300
H894        H  0.31782263  0.55394925  0.34242940     0.13300
C895        C  0.47855478  0.64810289  0.42532944     0.19400
C896        C  0.49450967  0.66548208  0.42639231    -0.18700
C897        C  0.49136509  0.68472467  0.41345377    -0.11000
C898        C  0.47181764  0.68727229  0.39953338     0.21600
C899        C  0.45571889  0.66996192  0.39861915    -0.20300
C900        C  0.45919453  0.65041659  0.41112688    -0.11200
C901        C  0.46662494  0.70883805  0.38825295    -0.15300
C902        C  0.48310377  0.72208898  0.37965671    -0.29200
C903        C  0.48145466  0.62882182  0.44083810    -0.03500
C904        C  0.47584854  0.60786455  0.43535636    -0.40000
H905        H  0.50932744  0.66427639  0.43753287     0.12800
H906        H  0.50369942  0.69802020  0.41520421     0.12400
H907        H  0.44025668  0.67171815  0.38845781     0.11800
H908        H  0.44626790  0.63755575  0.41044475     0.12100
H909        H  0.44897405  0.71437853  0.38871155     0.14800
H910        H  0.50052205  0.71574310  0.37927227     0.13600
H911        H  0.48914532  0.63203199  0.45728529     0.11300
H912        H  0.46980367  0.60420874  0.41838647     0.13300
C913        C  0.58966601  0.53023933  0.40415136     0.19400
C914        C  0.61179712  0.53929964  0.40271982    -0.18700
C915        C  0.62456383  0.53730050  0.38287642    -0.11000
C916        C  0.61545757  0.52593821  0.36410839     0.21600
C917        C  0.59365961  0.51620514  0.36595101    -0.20300
C918        C  0.58091738  0.51831016  0.38565786    -0.11200
C919        C  0.62778668  0.52368278  0.34230911    -0.15300
C920        C  0.64602702  0.53592277  0.33605007    -0.29200
C921        C  0.57609127  0.53279298  0.42515530    -0.03500
C922        C  0.55307144  0.53454561  0.42439610    -0.40000
H923        H  0.61908962  0.54820809  0.41687659     0.12800
H924        H  0.64152409  0.54453653  0.38248909     0.12400
H925        H  0.58631623  0.50705000  0.35197479     0.11800
H926        H  0.56429228  0.51034145  0.38644745     0.12100
H927        H  0.62037457  0.51244365  0.33000567     0.14800
H928        H  0.65267568  0.54867191  0.34708641     0.13600
H929        H  0.58510499  0.53332883  0.44128195     0.11300
H930        H  0.54446801  0.53524739  0.40804925     0.13300
C931        C  0.47059960  0.42754843  0.34356562     0.19400
C932        C  0.45775837  0.44697520  0.34628729    -0.18700
C933        C  0.45911337  0.45911893  0.36622968    -0.11000
C934        C  0.47305058  0.45209075  0.38434858     0.21600
C935        C  0.48559320  0.43232047  0.38202277    -0.20300
C936        C  0.48442121  0.42018461  0.36180209    -0.11200
C937        C  0.47479601  0.46676028  0.40451756    -0.15300
C938        C  0.48157603  0.46044269  0.42548055    -0.29200
C939        C  0.46908646  0.41620930  0.32119834    -0.03500
C940        C  0.48423723  0.40135036  0.31315936    -0.40000
H941        H  0.44691948  0.45312750  0.33267073     0.12800
H942        H  0.44928028  0.47425594  0.36742454     0.12400
H943        H  0.49676728  0.42649988  0.39548427     0.11800
H944        H  0.49437888  0.40517795  0.36055259     0.12100
H945        H  0.46939556  0.48379833  0.40196084     0.14800
H946        H  0.48589058  0.44329047  0.42890272     0.13600
H947        H  0.45586292  0.42222117  0.30965929     0.11300
H948        H  0.49881926  0.39639168  0.32350996     0.13300
C949        C  0.61293486  0.52948362  0.65242723     0.19400
C950        C  0.61340060  0.51452615  0.63440698    -0.18700
C951        C  0.59848687  0.51706649  0.61584580    -0.11000
C952        C  0.58235120  0.53435646  0.61523583     0.21600
C953        C  0.58217574  0.54951593  0.63310064    -0.20300
C954        C  0.59745812  0.54727497  0.65139258    -0.11200
C955        C  0.56397013  0.53563457  0.59759602    -0.15300
C956        C  0.56650097  0.52871226  0.57617055    -0.29200
C957        C  0.62602751  0.52429561  0.67346965    -0.03500
C958        C  0.63558357  0.53982492  0.68691961    -0.40000
H959        H  0.62488561  0.50045418  0.63502590     0.12800
H960        H  0.59876226  0.50479634  0.60264577     0.12400
H961        H  0.56973691  0.56281597  0.63318512     0.11800
H962        H  0.59621295  0.55870064  0.66531039     0.12100
H963        H  0.54769275  0.54288072  0.60245242     0.14800
H964        H  0.58316984  0.52314527  0.57047241     0.13600
H965        H  0.62627562  0.50706346  0.67834176     0.11300
H966        H  0.63484630  0.55692152  0.68128397     0.13300
C967        C  0.49128939  0.40835255  0.65492574     0.19400
C968        C  0.50792487  0.40902463  0.63790834    -0.18700
C969        C  0.50528969  0.42305289  0.61908710    -0.11000
C970        C  0.48620057  0.43719756  0.61720702     0.21600
C971        C  0.46961087  0.43655888  0.63427482    -0.20300
C972        C  0.47196037  0.42213600  0.65279413    -0.11200
C973        C  0.48419278  0.45422361  0.59895018    -0.15300
C974        C  0.49237362  0.45175750  0.57786522    -0.29200
C975        C  0.49579119  0.39522840  0.67590442    -0.03500
C976        C  0.47921293  0.38447047  0.68747336    -0.40000
H977        H  0.52319996  0.39889657  0.63937830     0.12800
H978        H  0.51870210  0.42352123  0.60658276     0.12400
H979        H  0.45493504  0.44753222  0.63344715     0.11800
H980        H  0.45919362  0.42252344  0.66593989     0.12100
H981        H  0.47509019  0.46934892  0.60298311     0.14800
H982        H  0.49976890  0.43608456  0.57288097     0.13600
H983        H  0.51330575  0.39534602  0.68202827     0.11300
H984        H  0.46190237  0.38469959  0.68050701     0.13300
C985        C  0.37820262  0.52942974  0.60635122     0.19400
C986        C  0.35776658  0.51754432  0.60950567    -0.18700
C987        C  0.34461836  0.52061495  0.62896148    -0.11000
C988        C  0.35162520  0.53588514  0.64557199     0.21600
C989        C  0.37163496  0.54829005  0.64186980    -0.20300
C990        C  0.38475333  0.54513452  0.62257955    -0.11200
C991        C  0.33949502  0.53906411  0.66737804    -0.15300
C992        C  0.32288965  0.52574654  0.67543723    -0.29200
C993        C  0.39232997  0.52572625  0.58591411    -0.03500
C994        C  0.41537294  0.52716973  0.58680855    -0.40000
H995        H  0.35218643  0.50558117  0.59708180     0.12800
H996        H  0.32913307  0.51095544  0.63076873     0.12400
H997        H  0.37738626  0.56032841  0.65415204     0.11800
H998        H  0.39996585  0.55517584  0.62033060     0.12100
H999        H  0.34626710  0.55178479  0.67844322     0.14800
H1000       H  0.31681429  0.51193493  0.66549733     0.13600
H1001       H  0.38375671  0.52143940  0.57017440     0.11300
H1002       H  0.42375146  0.52993322  0.60301651     0.13300
C1003       C  0.49094436  0.64000300  0.66137812     0.19400
C1004       C  0.50962752  0.63354439  0.64813009    -0.18700
C1005       C  0.50638829  0.61975205  0.62945488    -0.11000
C1006       C  0.48444705  0.61157853  0.62405601     0.21600
C1007       C  0.46575533  0.61788690  0.63730490    -0.20300
C1008       C  0.46887971  0.63221619  0.65560489    -0.11200
C1009       C  0.48116747  0.59525171  0.60568737    -0.15300
C1010       C  0.48931082  0.59870946  0.58479626    -0.29200
C1011       C  0.49542957  0.65249309  0.68256652    -0.03500
C1012       C  0.48034782  0.66661072  0.69192691    -0.40000
H1013       H  0.52684751  0.63894087  0.65246387     0.12800
H1014       H  0.52114514  0.61476763  0.61975086     0.12400
H1015       H  0.44874168  0.61155217  0.63358449     0.11800
H1016       H  0.45420510  0.63629605  0.66582369     0.12100
H1017       H  0.47112166  0.58049911  0.60920940     0.14800
H1018       H  0.49748046  0.61440127  0.58081217     0.13600
H1019       H  0.51144566  0.64883687  0.69125778     0.11300
H1020       H  0.46426078  0.66992758  0.68315316     0.13300
C1021       C  0.65040789  0.76134778  0.58476783     0.19400
C1022       C  0.65456582  0.78265108  0.59326437    -0.18700
C1023       C  0.66238072  0.78569499  0.61540834    -0.11000
C1024       C  0.66622261  0.76739958  0.62967112     0.21600
C1025       C  0.66054976  0.74620483  0.62170796    -0.20300
C1026       C  0.65283521  0.74313749  0.59947479    -0.11200
C1027       C  0.67634736  0.76948942  0.65273790    -0.15300
C1028       C  0.68808070  0.78730614  0.66039391    -0.29200
C1029       C  0.64761849  0.75901448  0.55989470    -0.03500
C1030       C  0.64529020  0.73980312  0.54859354    -0.40000
H1031       H  0.65278181  0.79702409  0.58237624     0.12800
H1032       H  0.66569657  0.80236245  0.62103599     0.12400
H1033       H  0.66300845  0.73181729  0.63245125     0.11800
H1034       H  0.64994845  0.72644738  0.59369868     0.12100
H1035       H  0.67483023  0.75507580  0.66368073     0.14800
H1036       H  0.69030424  0.80185492  0.64986101     0.13600
H1037       H  0.65142030  0.77378227  0.55001983     0.11300
H1038       H  0.64003189  0.72468301  0.55698110     0.13300
C1039       C  0.66382823  0.61140022  0.73827386     0.19400
C1040       C  0.66349030  0.62413933  0.75804198    -0.18700
C1041       C  0.67527612  0.64425191  0.75934107    -0.11000
C1042       C  0.68768553  0.65219466  0.74079083     0.21600
C1043       C  0.68752691  0.63986317  0.72077700    -0.20300
C1044       C  0.67592986  0.61958947  0.71952908    -0.11200
C1045       C  0.69933942  0.67406130  0.74111313    -0.15300
C1046       C  0.70770162  0.68392052  0.75991250    -0.29200
C1047       C  0.65290014  0.58908922  0.73896936    -0.03500
C1048       C  0.65214741  0.57446720  0.72184107    -0.40000
H1049       H  0.65427394  0.61836095  0.77274025     0.12800
H1050       H  0.67431045  0.65368995  0.77474763     0.12400
H1051       H  0.69665978  0.64583478  0.70610510     0.11800
H1052       H  0.67686437  0.61042943  0.70398659     0.12100
H1053       H  0.70083313  0.68252670  0.72495288     0.14800
H1054       H  0.70765517  0.67522910  0.77600157     0.13600
H1055       H  0.64631113  0.58390178  0.75523829     0.11300
H1056       H  0.65748756  0.57926036  0.70506574     0.13300
C1057       C  0.56750029  0.68765636  0.72980704     0.19400
C1058       C  0.58184925  0.68900078  0.74895942    -0.18700
C1059       C  0.60208737  0.70133407  0.74850095    -0.11000
C1060       C  0.60866080  0.71246703  0.72873767     0.21600
C1061       C  0.59500818  0.71034054  0.70920935    -0.20300
C1062       C  0.57443943  0.69823885  0.70974749    -0.11200
C1063       C  0.62994092  0.72597002  0.72832534    -0.15300
C1064       C  0.63598370  0.73889391  0.74582226    -0.29200
C1065       C  0.54487219  0.67656002  0.73255191    -0.03500
C1066       C  0.52657016  0.67904597  0.71861871    -0.40000
H1067       H  0.57705573  0.68098762  0.76463399     0.12800
H1068       H  0.61262331  0.70214090  0.76363951     0.12400
H1069       H  0.59996001  0.71855327  0.69370118     0.11800
H1070       H  0.56407703  0.69743170  0.69454516     0.12100
H1071       H  0.64048241  0.72559183  0.71331127     0.14800
H1072       H  0.62445557  0.74035114  0.76004463     0.13600
H1073       H  0.54218956  0.66826024  0.74864036     0.11300
H1074       H  0.52828440  0.68655511  0.70206932     0.13300
C1075       C  0.71108481  0.35444139  0.57842721     0.19400
C1076       C  0.73202100  0.35322551  0.59032583    -0.18700
C1077       C  0.73432496  0.34008338  0.60961825    -0.11000
C1078       C  0.71563166  0.32777752  0.61763497     0.21600
C1079       C  0.69455443  0.32900769  0.60587144    -0.20300
C1080       C  0.69229619  0.34205613  0.58629632    -0.11200
C1081       C  0.71700806  0.31557047  0.63944680    -0.15300
C1082       C  0.73685051  0.30820787  0.64887271    -0.29200
C1083       C  0.71049133  0.36830224  0.55762604    -0.03500
C1084       C  0.69515258  0.36639933  0.54056305    -0.40000
H1085       H  0.74681000  0.36252758  0.58464550     0.12800
H1086       H  0.75059182  0.34025105  0.61857674     0.12400
H1087       H  0.67975827  0.31997637  0.61195758     0.11800
H1088       H  0.67583054  0.34264486  0.57772484     0.12100
H1089       H  0.70105198  0.31361488  0.64860843     0.14800
H1090       H  0.75275452  0.30897878  0.63952379     0.13600
H1091       H  0.72532722  0.37887449  0.55506382     0.11300
H1092       H  0.67971420  0.35657103  0.54247474     0.13300
C1093       C  0.56696823  0.36432701  0.72723271     0.19400
C1094       C  0.58197467  0.36819375  0.74553360    -0.18700
C1095       C  0.60200702  0.35578181  0.74842875    -0.11000
C1096       C  0.60759080  0.33926430  0.73292467     0.21600
C1097       C  0.59332215  0.33615695  0.71395875    -0.20300
C1098       C  0.57309941  0.34840525  0.71117399    -0.11200
C1099       C  0.62896724  0.32613331  0.73513332    -0.15300
C1100       C  0.63964196  0.32143665  0.75496296    -0.29200
C1101       C  0.54405238  0.37516112  0.72761354    -0.03500
C1102       C  0.52625815  0.37051352  0.71366206    -0.40000
H1103       H  0.57780913  0.38041395  0.75812635     0.12800
H1104       H  0.61311538  0.35925202  0.76272236     0.12400
H1105       H  0.59759110  0.32384172  0.70149620     0.11800
H1106       H  0.56221169  0.34486736  0.69678112     0.12100
H1107       H  0.63634596  0.32031104  0.71948658     0.14800
H1108       H  0.63195974  0.32615436  0.77083151     0.13600
H1109       H  0.54043588  0.38491326  0.74251954     0.11300
H1110       H  0.52864770  0.36170777  0.69800694     0.13300
C1111       C  0.68850235  0.41579909  0.71368733     0.19400
C1112       C  0.69830353  0.43638577  0.70862973    -0.18700
C1113       C  0.68487863  0.45552558  0.70855655    -0.11000
C1114       C  0.66145097  0.45442283  0.71402616     0.21600
C1115       C  0.65146825  0.43373594  0.71828191    -0.20300
C1116       C  0.66478534  0.41454187  0.71788256    -0.11200
C1117       C  0.64840258  0.47468161  0.71933525    -0.15300
C1118       C  0.65244123  0.49431404  0.70940375    -0.29200
C1119       C  0.70367120  0.39645640  0.71752182    -0.03500
C1120       C  0.69665315  0.37569670  0.71359803    -0.40000
H1121       H  0.71656374  0.43776158  0.70560955     0.12800
H1122       H  0.69323657  0.47129490  0.70582258     0.12400
H1123       H  0.63356074  0.43254283  0.72291796     0.11800
H1124       H  0.65679009  0.39898424  0.72239332     0.12100
H1125       H  0.63656404  0.47381835  0.73338767     0.14800
H1126       H  0.66303276  0.49531036  0.69445438     0.13600
H1127       H  0.72066589  0.39937309  0.72464833     0.11300
H1128       H  0.68029850  0.37288277  0.70510255     0.13300
C1129       C  0.25069702  0.69711528  0.58268104     0.19400
C1130       C  0.22930092  0.70052083  0.59285489    -0.18700
C1131       C  0.22749469  0.71275980  0.61268783    -0.11000
C1132       C  0.24717760  0.72183418  0.62294958     0.21600
C1133       C  0.26867263  0.71792093  0.61313442    -0.20300
C1134       C  0.27046767  0.70580230  0.59316623    -0.11200
C1135       C  0.24630063  0.73417853  0.64458329    -0.15300
C1136       C  0.22728103  0.74374686  0.65307381    -0.29200
C1137       C  0.25110213  0.68511775  0.56083648    -0.03500
C1138       C  0.26799165  0.68667566  0.54545867    -0.40000
H1139       H  0.21378401  0.69389992  0.58524467     0.12800
H1140       H  0.21071382  0.71468597  0.62004749     0.12400
H1141       H  0.28418137  0.72434157  0.62093403     0.11800
H1142       H  0.28732761  0.70318422  0.58621437     0.12100
H1143       H  0.26230569  0.73519672  0.65411032     0.14800
H1144       H  0.21120827  0.74355472  0.64367928     0.13600
H1145       H  0.23546612  0.67639285  0.55626489     0.11300
H1146       H  0.28385699  0.69516368  0.54955101     0.13300
C1147       C  0.40385886  0.69889966  0.73740635     0.19400
C1148       C  0.39217865  0.70191304  0.75779423    -0.18700
C1149       C  0.37256982  0.71510275  0.75877987    -0.11000
C1150       C  0.36398925  0.72564742  0.73925715     0.21600
C1151       C  0.37549135  0.72247420  0.71875245    -0.20300
C1152       C  0.39529371  0.70933940  0.71779167    -0.11200
C1153       C  0.34210425  0.73838317  0.73918130    -0.15300
C1154       C  0.33172331  0.74614379  0.75784324    -0.29200
C1155       C  0.42541933  0.68571723  0.73822931    -0.03500
C1156       C  0.44195741  0.68566740  0.72241732    -0.40000
H1157       H  0.39836781  0.69411970  0.77320888     0.12800
H1158       H  0.36398067  0.71645198  0.77479002     0.12400
H1159       H  0.36905810  0.73012919  0.70336655     0.11800
H1160       H  0.40362371  0.70735959  0.70171550     0.12100
H1161       H  0.33374313  0.74077717  0.72286906     0.14800
H1162       H  0.34007211  0.74491101  0.77424010     0.13600
H1163       H  0.42910492  0.67748640  0.75421293     0.11300
H1164       H  0.43903447  0.69293748  0.70587680     0.13300
C1165       C  0.30505352  0.60583352  0.71820405     0.19400
C1166       C  0.31566900  0.62488188  0.72675062    -0.18700
C1167       C  0.30310362  0.64438262  0.72932515    -0.11000
C1168       C  0.27951781  0.64490646  0.72400681     0.21600
C1169       C  0.26892439  0.62591383  0.71541477    -0.20300
C1170       C  0.28162537  0.60661889  0.71222788    -0.11200
C1171       C  0.26546392  0.66465527  0.72876252    -0.15300
C1172       C  0.27297687  0.68508205  0.72392596    -0.29200
C1173       C  0.31725606  0.58442095  0.71954139    -0.03500
C1174       C  0.31296822  0.56772174  0.70524608    -0.40000
H1175       H  0.33353006  0.62447133  0.73201995     0.12800
H1176       H  0.31155197  0.65872593  0.73645172     0.12400
H1177       H  0.25072174  0.62593304  0.71147756     0.11800
H1178       H  0.27277841  0.59196221  0.70635800     0.12100
H1179       H  0.24853204  0.66229280  0.73593618     0.14800
H1180       H  0.28919659  0.68712804  0.71522689     0.13600
H1181       H  0.32775637  0.58137596  0.73451311     0.11300
H1182       H  0.30379293  0.57079990  0.68948985     0.13300
C1183       C  0.24888998  0.36333625  0.58374662     0.19400
C1184       C  0.22732963  0.35935890  0.59336024    -0.18700
C1185       C  0.22519966  0.34616208  0.61263869    -0.11000
C1186       C  0.24471784  0.33666594  0.62289862     0.21600
C1187       C  0.26643397  0.34145931  0.61387629    -0.20300
C1188       C  0.26855356  0.35459536  0.59444978    -0.11200
C1189       C  0.24337786  0.32278317  0.64366692    -0.15300
C1190       C  0.22387531  0.31382342  0.65195582    -0.29200
C1191       C  0.24947908  0.37530016  0.56179534    -0.03500
C1192       C  0.26599034  0.37271683  0.54625247    -0.40000
H1193       H  0.21190081  0.36603464  0.58555969     0.12800
H1194       H  0.20823224  0.34368828  0.61940666     0.12400
H1195       H  0.28183248  0.33482296  0.62176624     0.11800
H1196       H  0.28551968  0.35774526  0.58790805     0.12100
H1197       H  0.25939894  0.32029117  0.65289674     0.14800
H1198       H  0.20768622  0.31545205  0.64293195     0.13600
H1199       H  0.23384757  0.38391383  0.55683488     0.11300
H1200       H  0.28191507  0.36440353  0.55058125     0.13300
C1201       C  0.27471308  0.45622229  0.70459410     0.19400
C1202       C  0.29002172  0.43830770  0.70329741    -0.18700
C1203       C  0.28192102  0.41658875  0.70564084    -0.11000
C1204       C  0.25839595  0.41254326  0.70924341     0.21600
C1205       C  0.24312855  0.43041406  0.70905417    -0.20300
C1206       C  0.25117699  0.45197100  0.70672480    -0.11200
C1207       C  0.24923662  0.39058751  0.71587174    -0.15300
C1208       C  0.26007688  0.37129066  0.71268441    -0.29200
C1209       C  0.28251555  0.47930135  0.70768920    -0.03500
C1210       C  0.30352550  0.48712473  0.70296849    -0.40000
H1211       H  0.30833068  0.44099280  0.70205423     0.12800
H1212       H  0.29430723  0.40328929  0.70604544     0.12400
H1213       H  0.22495635  0.42777309  0.71175527     0.11800
H1214       H  0.23903974  0.46547576  0.70781286     0.12100
H1215       H  0.23271060  0.39043297  0.72424448     0.14800
H1216       H  0.27599040  0.37068906  0.70335469     0.13600
H1217       H  0.27043410  0.49043176  0.71568731     0.11300
H1218       H  0.31586336  0.47756631  0.69354177     0.13300
C1219       C  0.40181042  0.35394125  0.73352698     0.19400
C1220       C  0.38825035  0.35471735  0.75302413    -0.18700
C1221       C  0.36752471  0.34311248  0.75436551    -0.11000
C1222       C  0.35968958  0.33035128  0.73614010     0.21600
C1223       C  0.37289247  0.32998884  0.71636022    -0.20300
C1224       C  0.39382633  0.34147862  0.71507744    -0.11200
C1225       C  0.33719810  0.31848279  0.73663763    -0.15300
C1226       C  0.32635892  0.31192394  0.75570570    -0.29200
C1227       C  0.42486222  0.36472899  0.73448861    -0.03500
C1228       C  0.44090777  0.36487283  0.71811874    -0.40000
H1229       H  0.39388758  0.36414440  0.76754392     0.12800
H1230       H  0.35757015  0.34448496  0.76959831     0.12400
H1231       H  0.36711448  0.32053040  0.70191895     0.11800
H1232       H  0.40372080  0.34022349  0.69980833     0.12100
H1233       H  0.32914524  0.31517081  0.72038470     0.14800
H1234       H  0.33455411  0.31412568  0.77205825     0.13600
H1235       H  0.42967448  0.37156500  0.75077424     0.11300
H1236       H  0.43680276  0.35951565  0.70114274     0.13300
C1237       C  0.11812851  0.16102166  0.99896595     0.19400
C1238       C  0.10916456  0.14627733  0.98291959    -0.18700
C1239       C  0.08875532  0.13480029  0.98684239    -0.11000
C1240       C  0.07668105  0.13762507  0.00704754     0.21600
C1241       C  0.08506900  0.15288738  0.02285980    -0.20300
C1242       C  0.10569418  0.16437066  0.01898732    -0.11200
C1243       C  0.05603047  0.12383029  0.01193742    -0.15300
C1244       C  0.05632856  0.10216527  0.00710687    -0.29200
C1245       C  0.14116550  0.17101478  0.99450904    -0.03500
C1246       C  0.15171701  0.18655843  0.00717163    -0.40000
H1247       H  0.11822590  0.14328917  0.96735635     0.12800
H1248       H  0.08251854  0.12346110  0.97410406     0.12400
H1249       H  0.07611855  0.15530906  0.03858086     0.11800
H1250       H  0.11200201  0.17528408  0.03200333     0.12100
H1251       H  0.04134789  0.13105837  0.02027728     0.14800
H1252       H  0.07219018  0.09521275  0.00071840     0.13600
H1253       H  0.15071780  0.16403902  0.98061202     0.11300
H1254       H  0.14317152  0.19340125  0.02167620     0.13300
C1255       C  0.19826954  0.23610319  0.88522907     0.19400
C1256       C  0.17818577  0.23716674  0.89820863    -0.18700
C1257       C  0.17506778  0.22300434  0.91683258    -0.11000
C1258       C  0.19188776  0.20718065  0.92253981     0.21600
C1259       C  0.21148038  0.20565503  0.90898120    -0.20300
C1260       C  0.21472522  0.21994887  0.89068768    -0.11200
C1261       C  0.19127757  0.19316584  0.94331938    -0.15300
C1262       C  0.17858078  0.19725469  0.96176688    -0.29200
C1263       C  0.20048699  0.25023727  0.86467610    -0.03500
C1264       C  0.22072654  0.25535584  0.85482903    -0.40000
H1265       H  0.16492437  0.24908123  0.89398371     0.12800
H1266       H  0.15959146  0.22456041  0.92661472     0.12400
H1267       H  0.22470832  0.19359181  0.91284722     0.11800
H1268       H  0.22993399  0.21793273  0.88058190     0.12100
H1269       H  0.20500552  0.18108819  0.94504593     0.14800
H1270       H  0.16412125  0.20850714  0.96102849     0.13600
H1271       H  0.18456232  0.25554237  0.85661234     0.11300
H1272       H  0.23682884  0.25134376  0.86327145     0.13300
C1273       C  0.67888584  0.71995259  0.42959579     0.19400
C1274       C  0.70022940  0.71646719  0.41938201    -0.18700
C1275       C  0.70361686  0.72204124  0.39675854    -0.11000
C1276       C  0.68563475  0.73116007  0.38379470     0.21600
C1277       C  0.66377268  0.73291277  0.39338026    -0.20300
C1278       C  0.66040610  0.72753999  0.41614180    -0.11200
C1279       C  0.68936344  0.73939696  0.36047077    -0.15300
C1280       C  0.70923538  0.74889034  0.35399146    -0.29200
C1281       C  0.67806601  0.71912663  0.45464265    -0.03500
C1282       C  0.65918874  0.72236936  0.46715138    -0.51400
H1283       H  0.71472407  0.71047362  0.42925437     0.12800
H1284       H  0.72045207  0.71967307  0.38959681     0.12400
H1285       H  0.64955564  0.73957157  0.38356559     0.11800
H1286       H  0.64370383  0.73056137  0.42326201     0.12100
H1287       H  0.67483527  0.73907447  0.34881840     0.14800
H1288       H  0.72320997  0.75085882  0.36608605     0.13600
H1289       H  0.69458313  0.71846099  0.46335201     0.11300
H1290       H  0.64211159  0.72157441  0.45978323     0.13300
C1291       C  0.55978236  0.77243445  0.36026598     0.19400
C1292       C  0.57134458  0.79278523  0.35833297    -0.18700
C1293       C  0.59099143  0.79486018  0.34506938    -0.11000
C1294       C  0.59959759  0.77648375  0.33351937     0.21600
C1295       C  0.58867364  0.75592388  0.33633760    -0.20300
C1296       C  0.56899190  0.75386726  0.34949963    -0.11200
C1297       C  0.62023587  0.77755781  0.31896592    -0.15300
C1298       C  0.62978307  0.79621381  0.31046521    -0.29200
C1299       C  0.53751380  0.77193103  0.37236119    -0.03500
C1300       C  0.52117524  0.75628366  0.36956866    -0.40000
H1301       H  0.56478508  0.80733923  0.36664049     0.12800
H1302       H  0.59929449  0.81081929  0.34399459     0.12400
H1303       H  0.59521803  0.74136986  0.32802038     0.11800
H1304       H  0.56110340  0.73775470  0.35099720     0.12100
H1305       H  0.62774739  0.76171834  0.31465784     0.14800
H1306       H  0.62240645  0.81229846  0.31380061     0.13600
H1307       H  0.53333892  0.78657657  0.38197248     0.11300
H1308       H  0.52474273  0.74134717  0.36028277     0.13300
C1309       C  0.69108016  0.60924962  0.30484160     0.19400
C1310       C  0.67371677  0.62473172  0.30922862    -0.18700
C1311       C  0.67764512  0.64729189  0.30541415    -0.11000
C1312       C  0.69878383  0.65471888  0.29693642     0.21600
C1313       C  0.71664995  0.63941047  0.29440147    -0.20300
C1314       C  0.71278478  0.61695490  0.29830516    -0.11200
C1315       C  0.70138661  0.67839657  0.29065158    -0.15300
C1316       C  0.71708963  0.68618235  0.27589830    -0.29200
C1317       C  0.68671799  0.58513680  0.30332792    -0.03500
C1318       C  0.66736880  0.57462556  0.30951621    -0.40000
H1319       H  0.65677357  0.61953409  0.31434216     0.12800
H1320       H  0.66374682  0.65885537  0.30803063     0.12400
H1321       H  0.73350682  0.64456481  0.28897965     0.11800
H1322       H  0.72657816  0.60541560  0.29513831     0.12100
H1323       H  0.68908218  0.68979015  0.29784101     0.14800
H1324       H  0.72912792  0.67510621  0.26792827     0.13600
H1325       H  0.69974624  0.57554222  0.29474859     0.11300
H1326       H  0.65437466  0.58263368  0.31954931     0.13300
C1327       C  0.70586865  0.35608169  0.41873974     0.19400
C1328       C  0.72513781  0.35689285  0.40471069    -0.18700
C1329       C  0.72618904  0.34407119  0.38530413    -0.11000
C1330       C  0.70787240  0.33009944  0.37935353     0.21600
C1331       C  0.68829215  0.32963624  0.39298676    -0.20300
C1332       C  0.68730192  0.34237386  0.41261546    -0.11200
C1333       C  0.70802001  0.31746192  0.35800366    -0.15300
C1334       C  0.72748280  0.31069806  0.34805092    -0.29200
C1335       C  0.70696664  0.36884267  0.44005722    -0.03500
C1336       C  0.69295972  0.36599204  0.45779948    -0.40000
H1337       H  0.73966343  0.36734280  0.40891540     0.12800
H1338       H  0.74117394  0.34556292  0.37475777     0.12400
H1339       H  0.67376350  0.31932237  0.38846721     0.11800
H1340       H  0.67200370  0.34140725  0.42273342     0.12100
H1341       H  0.69154391  0.31433446  0.34985673     0.14800
H1342       H  0.74390716  0.31252508  0.35666792     0.13600
H1343       H  0.72183327  0.37951540  0.44216999     0.11300
H1344       H  0.67755051  0.35604763  0.45641890     0.13300
C1345       C  0.66104702  0.45468198  0.29495141     0.19400
C1346       C  0.65039483  0.43763471  0.28285132    -0.18700
C1347       C  0.66139527  0.41736389  0.28015741    -0.11000
C1348       C  0.68349959  0.41386698  0.28925638     0.21600
C1349       C  0.69391912  0.43065712  0.30195082    -0.20300
C1350       C  0.68270554  0.45085203  0.30499555    -0.11200
C1351       C  0.69657729  0.39362327  0.28387017    -0.15300
C1352       C  0.68614652  0.37398478  0.28159881    -0.29200
C1353       C  0.65158847  0.47728415  0.29277468    -0.03500
C1354       C  0.65602485  0.49353266  0.30751908    -0.40000
H1355       H  0.63397429  0.44037868  0.27454978     0.12800
H1356       H  0.65313131  0.40493816  0.26981250     0.12400
H1357       H  0.71101926  0.42837068  0.30893670     0.11800
H1358       H  0.69170125  0.46390182  0.31383909     0.12100
H1359       H  0.71504965  0.39488212  0.28175140     0.14800
H1360       H  0.66809300  0.37233132  0.28575390     0.13600
H1361       H  0.64309413  0.48140132  0.27686639     0.11300
H1362       H  0.66301166  0.48977782  0.32416216     0.13300
C1363       C  0.56312505  0.37087003  0.26906530     0.19400
C1364       C  0.57927071  0.37303739  0.25170025    -0.18700
C1365       C  0.59586635  0.35678209  0.24820093    -0.11000
C1366       C  0.59681711  0.33791496  0.26211144     0.21600
C1367       C  0.58115021  0.33595468  0.27988607    -0.20300
C1368       C  0.56431982  0.35211322  0.28324400    -0.11200
C1369       C  0.61563752  0.32151065  0.26019198    -0.15300
C1370       C  0.62695288  0.31730469  0.24087800    -0.29200
C1371       C  0.54382905  0.38701866  0.26952375    -0.03500
C1372       C  0.52596372  0.38633931  0.28387338    -0.40000
H1373       H  0.57878990  0.38722814  0.24044784     0.12800
H1374       H  0.60822029  0.35928740  0.23490356     0.12400
H1375       H  0.58183657  0.32175794  0.29111952     0.11800
H1376       H  0.55214285  0.34951354  0.29663564     0.12100
H1377       H  0.62139192  0.31369692  0.27582281     0.14800
H1378       H  0.62063475  0.32391183  0.22490626     0.13600
H1379       H  0.54264756  0.39820687  0.25513046     0.11300
H1380       H  0.52683158  0.37665870  0.29930406     0.13300
C1381       C  0.26938615  0.70041596  0.42373940     0.19400
C1382       C  0.26463078  0.69163326  0.40237679    -0.18700
C1383       C  0.26220935  0.70550389  0.38355141    -0.11000
C1384       C  0.26408980  0.72859607  0.38577402     0.21600
C1385       C  0.26934178  0.73738463  0.40707323    -0.20300
C1386       C  0.27219911  0.72342595  0.42587556    -0.11200
C1387       C  0.25872911  0.74369276  0.36650513    -0.15300
C1388       C  0.26311053  0.73807611  0.34509013    -0.29200
C1389       C  0.26697677  0.68590788  0.44384704    -0.03500
C1390       C  0.27809499  0.68926877  0.46353698    -0.40000
H1391       H  0.26188825  0.67403060  0.40041138     0.12800
H1392       H  0.25758634  0.69815462  0.36753506     0.12400
H1393       H  0.27065690  0.75510696  0.40926243     0.11800
H1394       H  0.27516255  0.73075779  0.44226528     0.12100
H1395       H  0.25114172  0.75969422  0.37000905     0.14800
H1396       H  0.27245637  0.72291791  0.34180923     0.13600
H1397       H  0.25381131  0.67318194  0.44297965     0.11300
H1398       H  0.29238095  0.70079097  0.46437869     0.13300
C1399       C  0.25954696  0.61498566  0.32104175     0.19400
C1400       C  0.23847039  0.62511387  0.31566814    -0.18700
C1401       C  0.23757310  0.64484140  0.30328853    -0.11000
C1402       C  0.25786438  0.65515254  0.29603415     0.21600
C1403       C  0.27904132  0.64529996  0.30186202    -0.20300
C1404       C  0.27992689  0.62534170  0.31410481    -0.11200
C1405       C  0.25769673  0.67699624  0.28411403    -0.15300
C1406       C  0.23908048  0.68606326  0.27375569    -0.29200
C1407       C  0.25890380  0.59346184  0.33336527    -0.03500
C1408       C  0.27516678  0.57757042  0.33253941    -0.40000
H1409       H  0.22247990  0.61758185  0.32090387     0.12800
H1410       H  0.22092916  0.65211218  0.29997078     0.12400
H1411       H  0.29498827  0.65310664  0.29694148     0.11800
H1412       H  0.29649708  0.61828095  0.31829377     0.12100
H1413       H  0.27359558  0.68640431  0.28467652     0.14800
H1414       H  0.22323899  0.67675184  0.27216687     0.13600
H1415       H  0.24275081  0.58953376  0.34144952     0.11300
H1416       H  0.29165235  0.58093374  0.32490557     0.13300
C1417       C  0.39855768  0.76331697  0.35363760     0.19400
C1418       C  0.38747575  0.78388671  0.35216790    -0.18700
C1419       C  0.36961988  0.78750606  0.33672341    -0.11000
C1420       C  0.36221693  0.77045778  0.32243011     0.21600
C1421       C  0.37313988  0.74971860  0.32406395    -0.20300
C1422       C  0.39127258  0.74617565  0.33940616    -0.11200
C1423       C  0.34210658  0.77297464  0.30696082    -0.15300
C1424       C  0.33184741  0.79235574  0.30126148    -0.29200
C1425       C  0.41816708  0.76127041  0.36965501    -0.03500
C1426       C  0.43713182  0.74919091  0.36580118    -0.40000
H1427       H  0.39286460  0.79740383  0.36289984     0.12800
H1428       H  0.36144643  0.80352875  0.33651793     0.12400
H1429       H  0.36754161  0.73616136  0.31348970     0.11800
H1430       H  0.39929861  0.73006024  0.34028596     0.12100
H1431       H  0.33489976  0.75767202  0.30048078     0.14800
H1432       H  0.33899294  0.80804362  0.30659935     0.13600
H1433       H  0.41900787  0.77361439  0.38288953     0.11300
H1434       H  0.43717970  0.73654348  0.35290346     0.13300
C1435       C  0.12534643  0.02096412  0.14160016     0.19400
C1436       C  0.10422338  0.00982965  0.14173592    -0.18700
C1437       C  0.08960480  0.01044625  0.12292920    -0.11000
C1438       C  0.09570663  0.02231890  0.10335513     0.21600
C1439       C  0.11752958  0.03224519  0.10262788    -0.20300
C1440       C  0.13222425  0.03165743  0.12157315    -0.11200
C1441       C  0.07963100  0.02450668  0.08363539    -0.15300
C1442       C  0.05666294  0.02318245  0.08594917    -0.29200
C1443       C  0.13884383  0.02170078  0.16307679    -0.03500
C1444       C  0.15374772  0.03790355  0.16841257    -0.40000
H1445       H  0.09865807  0.00108584  0.15673945     0.12800
H1446       H  0.07352372  0.00156276  0.12390408     0.12400
H1447       H  0.12296515  0.04098809  0.08758532     0.11800
H1448       H  0.14874838  0.03975742  0.12052547     0.12100
H1449       H  0.08675083  0.02808559  0.06713116     0.14800
H1450       H  0.04949534  0.02100104  0.10264582     0.13600
H1451       H  0.13378676  0.01031324  0.17638443     0.11300
H1452       H  0.15711232  0.05095911  0.15625667     0.13300
C1453       C  0.20725058  0.92407529  0.22397524     0.19400
C1454       C  0.18779132  0.93065294  0.21132319    -0.18700
C1455       C  0.18298825  0.95307088  0.20744537    -0.11000
C1456       C  0.19762470  0.96945620  0.21619591     0.21600
C1457       C  0.21740346  0.96288571  0.22821756    -0.20300
C1458       C  0.22220971  0.94053880  0.23208490    -0.11200
C1459       C  0.19160986  0.99333443  0.21593527    -0.15300
C1460       C  0.17563184  0.00307143  0.20252026    -0.29200
C1461       C  0.21047235  0.90007128  0.22917051    -0.03500
C1462       C  0.22910689  0.89105791  0.23953503    -0.40000
H1463       H  0.17587895  0.91839268  0.20490045     0.12800
H1464       H  0.16732968  0.95742685  0.19851801     0.12400
H1465       H  0.22887425  0.97517031  0.23533740     0.11800
H1466       H  0.23725400  0.93649798  0.24206305     0.12100
H1467       H  0.20056518  0.00343140  0.22830511     0.14800
H1468       H  0.16798305  0.99408539  0.18860778     0.13600
H1469       H  0.19649370  0.88918542  0.22415251     0.11300
H1470       H  0.24376441  0.90113726  0.24415681     0.13300
C1471       C  0.26186099  0.35712113  0.42407694     0.19400
C1472       C  0.24347469  0.35925868  0.40870119    -0.18700
C1473       C  0.24122314  0.34509587  0.39038721    -0.11000
C1474       C  0.25744469  0.32840816  0.38681356     0.21600
C1475       C  0.27647388  0.32675114  0.40152453    -0.20300
C1476       C  0.27857580  0.34080478  0.42020560    -0.11200
C1477       C  0.25585259  0.31419028  0.36657133    -0.15300
C1478       C  0.23568173  0.30872363  0.35656473    -0.29200
C1479       C  0.26111020  0.37101536  0.44466910    -0.03500
C1480       C  0.27405222  0.36826408  0.46347308    -0.40000
H1481       H  0.23038686  0.37170980  0.41111867     0.12800
H1482       H  0.22692995  0.34752918  0.37882505     0.12400
H1483       H  0.28954748  0.31437457  0.39871251     0.11800
H1484       H  0.29309131  0.33866880  0.43151567     0.12100
H1485       H  0.27192027  0.30932131  0.35887943     0.14800
H1486       H  0.21956958  0.31232662  0.36482801     0.13600
H1487       H  0.24665006  0.38231815  0.44562478     0.11300
H1488       H  0.28932424  0.35804753  0.46356916     0.13300
C1489       C  0.36334725  0.34764001  0.26720767     0.19400
C1490       C  0.37693584  0.34942000  0.28686520    -0.18700
C1491       C  0.39672497  0.36265254  0.28719400    -0.11000
C1492       C  0.40313756  0.37468965  0.26784182     0.21600
C1493       C  0.38918839  0.37325093  0.24839543    -0.20300
C1494       C  0.36957566  0.35994342  0.24803128    -0.11200
C1495       C  0.42470726  0.38787492  0.26624060    -0.15300
C1496       C  0.44198477  0.38815421  0.28164132    -0.29200
C1497       C  0.34218079  0.33382488  0.26769679    -0.03500
C1498       C  0.33183830  0.32536567  0.24913029    -0.40000
H1499       H  0.37232773  0.34035724  0.30199108     0.12800
H1500       H  0.40681198  0.36326318  0.30257599     0.12400
H1501       H  0.39361718  0.38231625  0.23321361     0.11800
H1502       H  0.35919645  0.35967850  0.23280010     0.12100
H1503       H  0.42731195  0.39634404  0.25026858     0.14800
H1504       H  0.43990565  0.38070317  0.29816603     0.13600
H1505       H  0.33484724  0.33050520  0.28417155     0.11300
H1506       H  0.33939148  0.32768493  0.23262370     0.13300
C1507       C  0.26603688  0.41667455  0.30220866     0.19400
C1508       C  0.27540912  0.43568772  0.29216354    -0.18700
C1509       C  0.27797239  0.45524281  0.30453799    -0.11000
C1510       C  0.27063782  0.45626328  0.32707903     0.21600
C1511       C  0.26169628  0.43709988  0.33719826    -0.20300
C1512       C  0.25962137  0.41746449  0.32500676    -0.11200
C1513       C  0.26806588  0.47769730  0.33890334    -0.15300
C1514       C  0.28067405  0.49589371  0.33453488    -0.29200
C1515       C  0.26128335  0.39670682  0.28837558    -0.03500
C1516       C  0.26419240  0.37617640  0.29676557    -0.40000
H1517       H  0.28028769  0.43553346  0.27457520     0.12800
H1518       H  0.28432256  0.46985781  0.29599849     0.12400
H1519       H  0.25547511  0.43755600  0.35435864     0.11800
H1520       H  0.25187337  0.40322937  0.33309486     0.12100
H1521       H  0.25359217  0.47908696  0.35024659     0.14800
H1522       H  0.29622684  0.49472938  0.32467855     0.13600
H1523       H  0.25535603  0.39895918  0.27106639     0.11300
H1524       H  0.27183958  0.37414976  0.31346028     0.13300
C1525       C  0.20544084  0.20818366  0.08240686     0.19400
C1526       C  0.22734901  0.21116451  0.09211762    -0.18700
C1527       C  0.23033539  0.22330988  0.11192035    -0.11000
C1528       C  0.21133534  0.23266004  0.12268104     0.21600
C1529       C  0.18933914  0.22941239  0.11315584    -0.20300
C1530       C  0.18637522  0.21743485  0.09315317    -0.11200
C1531       C  0.21336003  0.24452267  0.14457599    -0.15300
C1532       C  0.23300316  0.25290665  0.15352966    -0.29200
C1533       C  0.20388265  0.19589120  0.06078693    -0.03500
C1534       C  0.18714626  0.19829940  0.04500496    -0.40000
H1535       H  0.24236134  0.20420869  0.08419144     0.12800
H1536       H  0.24747297  0.22486147  0.11890420     0.12400
H1537       H  0.17433456  0.23615334  0.12127558     0.11800
H1538       H  0.16920751  0.21525458  0.08639689     0.12100
H1539       H  0.19753237  0.24622722  0.15395639     0.14800
H1540       H  0.24897607  0.25219701  0.14432278     0.13600
H1541       H  0.21898458  0.18637110  0.05646705     0.11300
H1542       H  0.17157137  0.20730403  0.04872257     0.13300
C1543       C  0.15141480  0.12308572  0.20041825     0.19400
C1544       C  0.13752673  0.13925598  0.21030723    -0.18700
C1545       C  0.14505540  0.16118752  0.21181922    -0.11000
C1546       C  0.16691710  0.16712819  0.20412386     0.21600
C1547       C  0.18016569  0.15135850  0.19285518    -0.20300
C1548       C  0.17243626  0.12955623  0.19088371    -0.11200
C1549       C  0.17626322  0.18929704  0.20950342    -0.15300
C1550       C  0.19774586  0.19183943  0.21776700    -0.29200
C1551       C  0.14604484  0.09941125  0.20450664    -0.03500
C1552       C  0.15482279  0.08273545  0.19238655    -0.40000
H1553       H  0.12136432  0.13466994  0.21793778     0.12800
H1554       H  0.13448111  0.17316431  0.22038720     0.12400
H1555       H  0.19691084  0.15569550  0.18638249     0.11800
H1556       H  0.18378874  0.11753221  0.18347415     0.12100
H1557       H  0.16456898  0.20328947  0.20914244     0.14800
H1558       H  0.20864193  0.17741238  0.22010052     0.13600
H1559       H  0.13700955  0.09549628  0.22000037     0.11300
H1560       H  0.16242215  0.08596618  0.17605016     0.13300
C1561       C  0.99248065  0.15289992  0.15325032     0.19400
C1562       C  0.00334363  0.13250582  0.14980429    -0.18700
C1563       C  0.00044156  0.12099353  0.12961121    -0.11000
C1564       C  0.98660603  0.12956415  0.11203972     0.21600
C1565       C  0.97666555  0.15055792  0.11488927    -0.20300
C1566       C  0.97935667  0.16205776  0.13537659    -0.11200
C1567       C  0.98276280  0.11676215  0.09074945    -0.15300
C1568       C  0.98169465  0.09444784  0.09097991    -0.29200
C1569       C  0.99523541  0.16334816  0.17594961    -0.03500
C1570       C  0.98042299  0.17778235  0.18521198    -0.40000
H1571       H  0.01383431  0.12513686  0.16304789     0.12800
H1572       H  0.00919793  0.10534535  0.12779098     0.12400
H1573       H  0.96634574  0.15781347  0.10146219     0.11800
H1574       H  0.97119367  0.17799972  0.13712702     0.12100
H1575       H  0.98054246  0.12572572  0.07493312     0.14800
H1576       H  0.98259869  0.08590009  0.10714840     0.13600
H1577       H  0.00862633  0.15651706  0.18679590     0.11300
H1578       H  0.96568741  0.18335704  0.17540262     0.13300
C1579       C  0.86176967  0.23061842  0.23260756     0.19400
C1580       C  0.87480486  0.22997988  0.21278716    -0.18700
C1581       C  0.89377374  0.21588918  0.21112579    -0.11000
C1582       C  0.89991033  0.20193453  0.22928618     0.21600
C1583       C  0.88653848  0.20230974  0.24889243    -0.20300
C1584       C  0.86773570  0.21644704  0.25059319    -0.11200
C1585       C  0.92073748  0.18772220  0.22955838    -0.15300
C1586       C  0.93862279  0.18967142  0.21535590    -0.29200
C1587       C  0.84096142  0.24474605  0.23312707    -0.03500
C1588       C  0.83017227  0.25082342  0.25217929    -0.40000
H1589       H  0.87027971  0.24043923  0.19851000     0.12800
H1590       H  0.90338719  0.21600145  0.19562658     0.12400
H1591       H  0.89080951  0.19174645  0.26316561     0.11800
H1592       H  0.85770283  0.21578218  0.26583397     0.12100
H1593       H  0.92266847  0.17689005  0.24414441     0.14800
H1594       H  0.93731105  0.19968449  0.20018049     0.13600
H1595       H  0.83375323  0.24966018  0.21686210     0.11300
H1596       H  0.83748983  0.24696551  0.26864126     0.13300
C1597       C  0.10129818  0.22617578  0.23694951     0.19400
C1598       C  0.09032906  0.22283808  0.21596003    -0.18700
C1599       C  0.07075144  0.20941776  0.21415121    -0.11000
C1600       C  0.06193896  0.19875711  0.23334888     0.21600
C1601       C  0.07342689  0.20146824  0.25414273    -0.20300
C1602       C  0.09278684  0.21504886  0.25599030    -0.11200
C1603       C  0.04039776  0.18547906  0.23310841    -0.15300
C1604       C  0.02313746  0.18761725  0.21781099    -0.29200
C1605       C  0.12245372  0.24002472  0.23791074    -0.03500
C1606       C  0.13154466  0.24906243  0.25688249    -0.40000
H1607       H  0.09686185  0.23078126  0.20089045     0.12800
H1608       H  0.06272420  0.20738994  0.19775945     0.12400
H1609       H  0.06714055  0.19331887  0.26920754     0.11800
H1610       H  0.10117845  0.21645166  0.27227833     0.12100
H1611       H  0.03745310  0.17541615  0.24803924     0.14800
H1612       H  0.02548400  0.19718088  0.20246655     0.13600
H1613       H  0.13123759  0.24248162  0.22199329     0.11300
H1614       H  0.12277279  0.24753640  0.27287674     0.13300
C1615       C  0.76395201  0.96530522  0.21408986     0.19400
C1616       C  0.74521363  0.96022679  0.22795406    -0.18700
C1617       C  0.73680334  0.93864929  0.22955985    -0.11000
C1618       C  0.74705114  0.92154174  0.21727916     0.21600
C1619       C  0.76513762  0.92684533  0.20262758    -0.20300
C1620       C  0.77357854  0.94845195  0.20105734    -0.11200
C1621       C  0.74097869  0.89780776  0.22041755    -0.15300
C1622       C  0.72518055  0.88985353  0.23494286    -0.29200
C1623       C  0.77416746  0.98771931  0.21577687    -0.03500
C1624       C  0.79035580  0.99633447  0.20212003    -0.40000
H1625       H  0.73747789  0.97291141  0.23821627     0.12800
H1626       H  0.72282241  0.93556381  0.24098211     0.12400
H1627       H  0.77340536  0.91402955  0.19295862     0.11800
H1628       H  0.78821260  0.95155854  0.19041444     0.12100
H1629       H  0.75122348  0.88605911  0.21105834     0.14800
H1630       H  0.71407246  0.90080156  0.24421000     0.13600
H1631       H  0.76812222  0.99770129  0.22968636     0.11300
H1632       H  0.79535834  0.98796346  0.18684549     0.13300
C1633       C  0.80035858  0.11515769  0.20569926     0.19400
C1634       C  0.81215198  0.13413107  0.21274430    -0.18700
C1635       C  0.80056602  0.15419117  0.21484048    -0.11000
C1636       C  0.77684194  0.15542401  0.21032414     0.21600
C1637       C  0.76512556  0.13656676  0.20293537    -0.20300
C1638       C  0.77679541  0.11662689  0.20040923    -0.11200
C1639       C  0.76364722  0.17561169  0.21515867    -0.15300
C1640       C  0.77246742  0.19584545  0.21205865    -0.29200
C1641       C  0.81166426  0.09341890  0.20803573    -0.03500
C1642       C  0.80538571  0.07585477  0.19571218    -0.40000
H1643       H  0.83015545  0.13321815  0.21743066     0.12800
H1644       H  0.80991998  0.16837344  0.22115989     0.12400
H1645       H  0.74679810  0.13714858  0.19966902     0.11800
H1646       H  0.76702953  0.10210429  0.19571766     0.12100
H1647       H  0.74622555  0.17373374  0.22130545     0.14800
H1648       H  0.78923296  0.19777312  0.20440010     0.13600
H1649       H  0.82337544  0.09118540  0.22226515     0.11300
H1650       H  0.79495713  0.07812668  0.18058359     0.13300
C1651       C  0.86749827  0.02009607  0.10233745     0.19400
C1652       C  0.84812571  0.03383013  0.10370996    -0.18700
C1653       C  0.83373027  0.03287853  0.12258895    -0.11000
C1654       C  0.83834147  0.01789141  0.14040729     0.21600
C1655       C  0.85705166  0.00343593  0.13834748    -0.20300
C1656       C  0.87143564  0.00449623  0.11964169    -0.11200
C1657       C  0.82532641  0.01727386  0.16201985    -0.15300
C1658       C  0.81045624  0.03283088  0.16891817    -0.29200
C1659       C  0.88343765  0.02229538  0.08287084    -0.03500
C1660       C  0.90618195  0.01869097  0.08516570    -0.40000
H1661       H  0.84448381  0.04575053  0.09042850     0.12800
H1662       H  0.81928410  0.04404319  0.12313087     0.12400
H1663       H  0.86094160  0.99153222  0.15158457     0.11800
H1664       H  0.88567427  0.99306114  0.11881244     0.12100
H1665       H  0.83051667  0.00474499  0.17425724     0.14800
H1666       H  0.80626277  0.04664135  0.15791196     0.13600
H1667       H  0.87658800  0.02816456  0.06679743     0.11300
H1668       H  0.91315951  0.01451897  0.10172097     0.13300
C1669       C  0.10350148  0.80059752  0.18896526     0.19400
C1670       C  0.08884179  0.81908068  0.18915331    -0.18700
C1671       C  0.06791456  0.81901293  0.17713472    -0.11000
C1672       C  0.06137265  0.80047288  0.16434512     0.21600
C1673       C  0.07662292  0.78249012  0.16334236    -0.20300
C1674       C  0.09734001  0.78248121  0.17548417    -0.11200
C1675       C  0.03840160  0.79797818  0.15315526    -0.15300
C1676       C  0.01994714  0.81121967  0.15598115    -0.29200
C1677       C  0.12542513  0.80108859  0.20225074    -0.03500
C1678       C  0.13670858  0.78279403  0.20957553    -0.40000
H1679       H  0.09338620  0.83347220  0.19902401     0.12800
H1680       H  0.05693609  0.83335035  0.17819104     0.12400
H1681       H  0.07224259  0.76803077  0.15349983     0.11800
H1682       H  0.10850718  0.76829094  0.17410614     0.12100
H1683       H  0.03580517  0.78277738  0.14379119     0.14800
H1684       H  0.02153595  0.82689656  0.16459091     0.13600
H1685       H  0.13233302  0.81726276  0.20642897     0.11300
H1686       H  0.12952438  0.76653015  0.20646443     0.13300
C1687       C  0.84945257  0.79621615  0.18396611     0.19400
C1688       C  0.86594320  0.81273413  0.18820543    -0.18700
C1689       C  0.88775071  0.81192790  0.17834203    -0.11000
C1690       C  0.89349957  0.79471102  0.16357407     0.21600
C1691       C  0.87668812  0.77862885  0.15872884    -0.20300
C1692       C  0.85495207  0.77935441  0.16872996    -0.11200
C1693       C  0.91730086  0.79146347  0.15484481    -0.15300
C1694       C  0.93431046  0.80678131  0.15509412    -0.29200
C1695       C  0.82670582  0.79736165  0.19547631    -0.03500
C1696       C  0.81365809  0.77950994  0.20071942    -0.40000
H1697       H  0.86216765  0.82601485  0.19975610     0.12800
H1698       H  0.90020035  0.82440253  0.18298419     0.12400
H1699       H  0.88053526  0.76515032  0.14743713     0.11800
H1700       H  0.84251855  0.76670377  0.16449477     0.12100
H1701       H  0.92120943  0.77502972  0.14872664     0.14800
H1702       H  0.93053025  0.82365271  0.15976219     0.13600
H1703       H  0.82116171  0.81356014  0.20105643     0.11300
H1704       H  0.81966379  0.76307523  0.19654363     0.13300
C1705       C  0.98105719  0.90903744  0.09098950     0.19400
C1706       C  0.96515029  0.89160733  0.08961041    -0.18700
C1707       C  0.96752927  0.87274858  0.10331816    -0.11000
C1708       C  0.98624077  0.87065797  0.11835508     0.21600
C1709       C  0.00214283  0.88807408  0.11980953    -0.20300
C1710       C  0.99942636  0.90722232  0.10652318    -0.11200
C1711       C  0.99077345  0.84945401  0.13053689    -0.15300
C1712       C  0.97402156  0.83774356  0.14074776    -0.29200
C1713       C  0.97914057  0.92788264  0.07469203    -0.03500
C1714       C  0.98610457  0.94864165  0.07934502    -0.40000
H1715       H  0.95101080  0.89244513  0.07761692     0.12800
H1716       H  0.95532528  0.85935709  0.10139538     0.12400
H1717       H  0.01689863  0.88669104  0.13100112     0.11800
H1718       H  0.01229157  0.92009930  0.10768180     0.12100
H1719       H  0.00809886  0.84312457  0.12979601     0.14800
H1720       H  0.95697492  0.84495469  0.14090655     0.13600
H1721       H  0.97109593  0.92461602  0.05841976     0.11300
H1722       H  0.99237761  0.95254947  0.09617222     0.13300
C1723       C  0.18845537  0.90712818  0.79661496     0.19400
C1724       C  0.17978173  0.92548215  0.78469208    -0.18700
C1725       C  0.17664910  0.94574074  0.79554583    -0.11000
C1726       C  0.18265355  0.94811816  0.81844822     0.21600
C1727       C  0.19078823  0.92965122  0.83050268    -0.20300
C1728       C  0.19341033  0.90928134  0.81980340    -0.11200
C1729       C  0.18464020  0.97030831  0.82872423    -0.15300
C1730       C  0.17025324  0.98711933  0.82394840    -0.29200
C1731       C  0.19436403  0.88665097  0.78419533    -0.03500
C1732       C  0.19344075  0.86652262  0.79386341    -0.40000
H1733       H  0.17604950  0.92430417  0.76679471     0.12800
H1734       H  0.17097190  0.95987040  0.78566372     0.12400
H1735       H  0.19595864  0.93121626  0.84803422     0.11800
H1736       H  0.20062455  0.89563482  0.82941171     0.12100
H1737       H  0.19973670  0.97340055  0.83917784     0.14800
H1738       H  0.15423001  0.98410813  0.81495472     0.13600
H1739       H  0.19958347  0.88819196  0.76669744     0.11300
H1740       H  0.18634001  0.86474150  0.81066446     0.13300
C1741       C  0.18507643  0.14961542  0.79952891     0.19400
C1742       C  0.17923203  0.13084810  0.78694836    -0.18700
C1743       C  0.17555508  0.11051556  0.79765112    -0.11000
C1744       C  0.17819572  0.10844734  0.82116737     0.21600
C1745       C  0.18344608  0.12729097  0.83387583    -0.20300
C1746       C  0.18660063  0.14778585  0.82321163    -0.11200
C1747       C  0.18016498  0.08629050  0.83171753    -0.15300
C1748       C  0.16735205  0.06897913  0.82510725    -0.29200
C1749       C  0.19152248  0.17020644  0.78733372    -0.03500
C1750       C  0.18897069  0.19045846  0.79610261    -0.40000
H1751       H  0.17818496  0.13178232  0.76870293     0.12800
H1752       H  0.17222577  0.09611711  0.78735870     0.12400
H1753       H  0.18603557  0.12595046  0.85196472     0.11800
H1754       H  0.19157358  0.16179743  0.83341597     0.12100
H1755       H  0.19460070  0.08354977  0.84316783     0.14800
H1756       H  0.15201281  0.07158218  0.81486219     0.13600
H1757       H  0.19822819  0.16862213  0.77036823     0.11300
H1758       H  0.18068729  0.19236619  0.81231059     0.13300
C1759       C  0.11326169  0.01786840  0.86982705     0.19400
C1760       C  0.11400920  0.01034232  0.89227439    -0.18700
C1761       C  0.09560839  0.01396077  0.90670611    -0.11000
C1762       C  0.07582827  0.02514299  0.89899302     0.21600
C1763       C  0.07467064  0.03198596  0.87631432    -0.20300
C1764       C  0.09325923  0.02854854  0.86186380    -0.11200
C1765       C  0.05595370  0.02890714  0.91412286    -0.15300
C1766       C  0.05875995  0.03192892  0.93646829    -0.29200
C1767       C  0.13397071  0.01455768  0.85573371    -0.03500
C1768       C  0.13972582  0.02764373  0.83819686    -0.40000
H1769       H  0.12907472  0.00186549  0.89880979     0.12800
H1770       H  0.09681775  0.00765080  0.92381115     0.12400
H1771       H  0.05945368  0.04024107  0.86984878     0.11800
H1772       H  0.09180716  0.03409507  0.84451726     0.12100
H1773       H  0.03879474  0.02902595  0.90676205     0.14800
H1774       H  0.07602347  0.03279554  0.94351809     0.13600
H1775       H  0.14663330  0.00276399  0.86195219     0.11300
H1776       H  0.12840113  0.04102401  0.83307158     0.13300
C1777       C  0.85607473  0.85883595  0.78557166     0.19400
C1778       C  0.85668654  0.88181128  0.78228109    -0.18700
C1779       C  0.87759301  0.89317552  0.78284158    -0.11000
C1780       C  0.89811681  0.88189550  0.78757006     0.21600
C1781       C  0.89734836  0.85904148  0.79212601    -0.20300
C1782       C  0.87650507  0.84757287  0.79096498    -0.11200
C1783       C  0.92025297  0.89326231  0.78370292    -0.15300
C1784       C  0.93975559  0.88787918  0.79471842    -0.29200
C1785       C  0.83392172  0.84706215  0.78307805    -0.03500
C1786       C  0.83204179  0.82733493  0.77281366    -0.40000
H1787       H  0.84108179  0.89081254  0.77826260     0.12800
H1788       H  0.87783761  0.91070145  0.77896170     0.12400
H1789       H  0.91297134  0.84979722  0.79529841     0.11800
H1790       H  0.87639959  0.82989624  0.79398088     0.12100
H1791       H  0.92097200  0.90476146  0.76954612     0.14800
H1792       H  0.93914260  0.87759060  0.80978853     0.13600
H1793       H  0.81849144  0.85574547  0.78812747     0.11300
H1794       H  0.84717351  0.81947001  0.76592505     0.13300
C1795       C  0.05894461  0.86418961  0.76823422     0.19400
C1796       C  0.06881475  0.85817963  0.74759417    -0.18700
C1797       C  0.08756261  0.84377989  0.74686339    -0.11000
C1798       C  0.09705966  0.83497948  0.76688676     0.21600
C1799       C  0.08744118  0.84127467  0.78758777    -0.20300
C1800       C  0.06855430  0.85562211  0.78831370    -0.11200
C1801       C  0.11781455  0.82047529  0.76715749    -0.15300
C1802       C  0.12688883  0.81042921  0.74891961    -0.29200
C1803       C  0.03820588  0.87863266  0.76746988    -0.03500
C1804       C  0.02310487  0.88143949  0.78441618    -0.40000
H1805       H  0.06183357  0.86451827  0.73181593     0.12800
H1806       H  0.09467679  0.83998829  0.73057600     0.12400
H1807       H  0.09460404  0.83506330  0.80333504     0.11800
H1808       H  0.06174756  0.85998417  0.80458650     0.12100
H1809       H  0.12646173  0.81850300  0.78338317     0.14800
H1810       H  0.11845059  0.81153466  0.73256738     0.13600
H1811       H  0.03404881  0.88566992  0.75105049     0.11300
H1812       H  0.02682270  0.87516066  0.80122462     0.13300
C1813       C  0.99567883  0.95172636  0.88710315     0.19400
C1814       C  0.00923545  0.95862950  0.86889322    -0.18700
C1815       C  0.01125648  0.94555990  0.84959320    -0.11000
C1816       C  0.99943727  0.92537048  0.84770658     0.21600
C1817       C  0.98612635  0.91822159  0.86614304    -0.20300
C1818       C  0.98424231  0.93126870  0.88556733    -0.11200
C1819       C  0.00059537  0.91321252  0.82577980    -0.15300
C1820       C  0.98537357  0.89767988  0.81908086    -0.29200
C1821       C  0.99296306  0.96687510  0.90671955    -0.03500
C1822       C  0.98773077  0.96019443  0.92788099    -0.40000
H1823       H  0.01820397  0.97432035  0.86952635     0.12800
H1824       H  0.02164556  0.95158820  0.83578577     0.12400
H1825       H  0.97697384  0.90268518  0.86571866     0.11800
H1826       H  0.97330553  0.92555127  0.89905485     0.12100
H1827       H  0.01273076  0.91930729  0.81338786     0.14800
H1828       H  0.97189172  0.89258261  0.83043701     0.13600
H1829       H  0.99622747  0.98433329  0.90366363     0.11300
H1830       H  0.98593726  0.94269479  0.93162526     0.13300
C1831       C  0.90146913  0.19622367  0.78160502     0.19400
C1832       C  0.88417826  0.19426913  0.76505085    -0.18700
C1833       C  0.86921381  0.21172176  0.76040037    -0.11000
C1834       C  0.87108430  0.23160759  0.77234060     0.21600
C1835       C  0.88812244  0.23360436  0.78911788    -0.20300
C1836       C  0.90337372  0.21619945  0.79359221    -0.11200
C1837       C  0.85355208  0.24914840  0.76965043    -0.15300
C1838       C  0.84191927  0.25290599  0.75020391    -0.29200
C1839       C  0.91834002  0.17788295  0.78363666    -0.03500
C1840       C  0.93799678  0.17871867  0.79573789    -0.40000
H1841       H  0.88236436  0.17919519  0.75542073     0.12800
H1842       H  0.85575182  0.20932920  0.74792785     0.12400
H1843       H  0.88959730  0.24867586  0.79879996     0.11800
H1844       H  0.91651693  0.21864622  0.80631797     0.12100
H1845       H  0.84877994  0.25798612  0.78480670     0.14800
H1846       H  0.84741854  0.24519263  0.73467196     0.13600
H1847       H  0.91628345  0.16448162  0.77165673     0.11300
H1848       H  0.94051200  0.19088250  0.80886080     0.13300
C1849       C  0.09419955  0.21730223  0.76416155     0.19400
C1850       C  0.08553814  0.21101908  0.78532177    -0.18700
C1851       C  0.06654165  0.19700456  0.78702396    -0.11000
C1852       C  0.05571857  0.18889635  0.76748117     0.21600
C1853       C  0.06460676  0.19480519  0.74630542    -0.20300
C1854       C  0.08359304  0.20889004  0.74459342    -0.11200
C1855       C  0.03476430  0.17489777  0.76818728    -0.15300
C1856       C  0.01967624  0.17482014  0.78533823    -0.29200
C1857       C  0.11498420  0.23162303  0.76368220    -0.03500
C1858       C  0.12386873  0.24145539  0.74515909    -0.40000
H1859       H  0.09357120  0.21695051  0.80070123     0.12800
H1860       H  0.06063799  0.19244261  0.80365721     0.12400
H1861       H  0.05662859  0.18871323  0.73096042     0.11800
H1862       H  0.08993716  0.21281670  0.72796857     0.12100
H1863       H  0.03043908  0.16620320  0.75277588     0.14800
H1864       H  0.02363578  0.18360908  0.80075436     0.13600
H1865       H  0.12371492  0.23389696  0.77979745     0.11300
H1866       H  0.11552702  0.23996518  0.72880764     0.13300
C1867       C  0.97356773  0.14643736  0.85922414     0.19400
C1868       C  0.95615541  0.14421330  0.87538943    -0.18700
C1869       C  0.95973338  0.13161937  0.89511413    -0.11000
C1870       C  0.98069046  0.12059359  0.89878119     0.21600
C1871       C  0.99826465  0.12330934  0.88299626    -0.20300
C1872       C  0.99488225  0.13622897  0.86356584    -0.11200
C1873       C  0.98370150  0.10389162  0.91707974    -0.15300
C1874       C  0.97539751  0.10607591  0.93808057    -0.29200
C1875       C  0.96795099  0.15636832  0.83668514    -0.03500
C1876       C  0.98383040  0.16475228  0.82246729    -0.40000
H1877       H  0.93945030  0.15156600  0.87233462     0.12800
H1878       H  0.94568814  0.12943012  0.90675806     0.12400
H1879       H  0.01445089  0.11474556  0.88533448     0.11800
H1880       H  0.00852133  0.13691436  0.85133269     0.12100
H1881       H  0.99358044  0.08921958  0.91306867     0.14800
H1882       H  0.96711401  0.12138000  0.94293132     0.13600
H1883       H  0.95029917  0.15473519  0.83098340     0.11300
H1884       H  0.00137374  0.16640426  0.82851544     0.13300
C1885       C  0.77455380  0.91984707  0.77358910     0.19400
C1886       C  0.78670423  0.92677252  0.79295518    -0.18700
C1887       C  0.79140762  0.94918610  0.79664810    -0.11000
C1888       C  0.78417723  0.96522762  0.78085381     0.21600
C1889       C  0.77311136  0.95818174  0.76095904    -0.20300
C1890       C  0.76832278  0.93582848  0.75732285    -0.11200
C1891       C  0.78548855  0.98943482  0.78504028    -0.15300
C1892       C  0.79411781  0.99929624  0.80368507    -0.29200
C1893       C  0.76846765  0.89596119  0.77152091    -0.03500
C1894       C  0.75410305  0.88721564  0.75582036    -0.40000
H1895       H  0.79201162  0.91482644  0.80567136     0.12800
H1896       H  0.80002347  0.95376650  0.81216018     0.12400
H1897       H  0.76744051  0.97013847  0.74839804     0.11800
H1898       H  0.75949037  0.93137854  0.74189879     0.12100
H1899       H  0.77718951  0.99987685  0.77238605     0.14800
H1900       H  0.80387306  0.99014883  0.81628878     0.13600
H1901       H  0.77585625  0.88497984  0.78424088     0.11300
H1902       H  0.74640845  0.89744027  0.74272053     0.13300
C1903       C  0.78998297  0.11910242  0.82314114     0.19400
C1904       C  0.77760728  0.13559025  0.83426815    -0.18700
C1905       C  0.77553568  0.15674741  0.82484790    -0.11000
C1906       C  0.78544719  0.16157704  0.80386396     0.21600
C1907       C  0.79890952  0.14554931  0.79337120    -0.20300
C1908       C  0.80143627  0.12455237  0.80304776    -0.11200
C1909       C  0.77938560  0.18198718  0.79135753    -0.15300
C1910       C  0.77711020  0.20154109  0.80155934    -0.29200
C1911       C  0.78608054  0.09571872  0.82960524    -0.03500
C1912       C  0.80001654  0.07908993  0.82367235    -0.40000
H1913       H  0.76831392  0.13168363  0.84953439     0.12800
H1914       H  0.76474520  0.16873828  0.83310836     0.12400
H1915       H  0.80658480  0.14896153  0.77713423     0.11800
H1916       H  0.81064732  0.11213133  0.79371593     0.12100
H1917       H  0.77664920  0.18086086  0.77322012     0.14800
H1918       H  0.78185929  0.20329134  0.81923956     0.13600
H1919       H  0.76919010  0.09169790  0.83614910     0.11300
H1920       H  0.81754582  0.08235726  0.81855628     0.13300
C1921       C  0.88504626  0.03137507  0.89703293     0.19400
C1922       C  0.88677152  0.02528089  0.87424914    -0.18700
C1923       C  0.86811831  0.02817037  0.85926660    -0.11000
C1924       C  0.84745078  0.03749405  0.86682863     0.21600
C1925       C  0.84586766  0.04363662  0.88954127    -0.20300
C1926       C  0.86432150  0.04066079  0.90443231    -0.11200
C1927       C  0.82740805  0.04230274  0.85178519    -0.15300
C1928       C  0.82305175  0.03279960  0.83167813    -0.29200
C1929       C  0.90531096  0.02916748  0.91253245    -0.03500
C1930       C  0.90296366  0.02680179  0.93501839    -0.40000
H1931       H  0.90262342  0.01837570  0.86801854     0.12800
H1932       H  0.87016867  0.02363987  0.84177866     0.12400
H1933       H  0.83028467  0.05108027  0.89580248     0.11800
H1934       H  0.86243725  0.04638016  0.92156511     0.12100
H1935       H  0.81459827  0.05350196  0.85838690     0.14800
H1936       H  0.83427778  0.01996735  0.82544551     0.13600
H1937       H  0.92238139  0.02966142  0.90532605     0.11300
H1938       H  0.88589522  0.02500013  0.94199168     0.13300
C1939       C  0.19849916  0.87006104  0.08307591     0.19400
C1940       C  0.20401322  0.88123286  0.10308003    -0.18700
C1941       C  0.20821582  0.86945458  0.12309576    -0.11000
C1942       C  0.20735917  0.84620514  0.12330146     0.21600
C1943       C  0.20159419  0.83506892  0.10338439    -0.20300
C1944       C  0.19699000  0.84684380  0.08349932    -0.11200
C1945       C  0.21374759  0.83309433  0.14360334    -0.15300
C1946       C  0.20932711  0.83993738  0.16459397    -0.29200
C1947       C  0.19850999  0.88240191  0.06139706    -0.03500
C1948       C  0.18729373  0.87540596  0.04283816    -0.40000
H1949       H  0.20580936  0.89906157  0.10302964     0.12800
H1950       H  0.21316400  0.87850142  0.13807680     0.12400
H1951       H  0.20107091  0.81716794  0.10312232     0.11800
H1952       H  0.19359317  0.83764615  0.06822333     0.12100
H1953       H  0.22127025  0.81685631  0.14115459     0.14800
H1954       H  0.20004390  0.85527407  0.16713116     0.13600
H1955       H  0.21027093  0.89629807  0.06002836     0.11300
H1956       H  0.17430590  0.86259194  0.04419536     0.13300
C1957       C  0.20932894  0.85725563  0.92324351     0.19400
C1958       C  0.22961785  0.85601137  0.91063550    -0.18700
C1959       C  0.23072160  0.84312704  0.89119077    -0.11000
C1960       C  0.21145101  0.83110808  0.88380089     0.21600
C1961       C  0.19100021  0.83266554  0.89607130    -0.20300
C1962       C  0.18992480  0.84545301  0.91566793    -0.11200
C1963       C  0.21156767  0.81805048  0.86262156    -0.15300
C1964       C  0.23067106  0.80958868  0.85325945    -0.29200
C1965       C  0.20990463  0.87041780  0.94443422    -0.03500
C1966       C  0.19348867  0.87061975  0.96040243    -0.40000
H1967       H  0.24483511  0.86497831  0.91593269     0.12800
H1968       H  0.24655073  0.84302152  0.88180320     0.12400
H1969       H  0.17578763  0.82384725  0.89051214     0.11800
H1970       H  0.17387327  0.84601251  0.92461224     0.12100
H1971       H  0.19506778  0.81547349  0.85431737     0.14800
H1972       H  0.24719147  0.81121527  0.86171738     0.13600
H1973       H  0.22573963  0.87933229  0.94764872     0.11300
H1974       H  0.17724586  0.86229349  0.95764618     0.13300
C1975       C  0.08206931  0.92476073  0.99371708     0.19400
C1976       C  0.08695990  0.90500888  0.00531061    -0.18700
C1977       C  0.10793362  0.89411831  0.00207574    -0.11000
C1978       C  0.12424648  0.90274214  0.98690078     0.21600
C1979       C  0.11851738  0.92174524  0.97432439    -0.20300
C1980       C  0.09775142  0.93264999  0.97770059    -0.11200
C1981       C  0.14794487  0.89372741  0.98453494    -0.15300
C1982       C  0.15825482  0.88005087  0.99954154    -0.29200
C1983       C  0.06108351  0.93760302  0.99888600    -0.03500
C1984       C  0.06228955  0.95968411  0.00102713    -0.40000
H1985       H  0.07494271  0.89848014  0.01750140     0.12800
H1986       H  0.11129043  0.87923072  0.01172375     0.12400
H1987       H  0.13052209  0.92868104  0.96234721     0.11800
H1988       H  0.09411154  0.94752317  0.96802985     0.12100
H1989       H  0.15855938  0.90121498  0.97158367     0.14800
H1990       H  0.14861419  0.87365923  0.01368858     0.13600
H1991       H  0.04498408  0.92894578  0.00158866     0.11300
H1992       H  0.07894962  0.96769908  0.99971123     0.13300
C1993       C  0.75234675  0.24392619  0.11023068     0.19400
C1994       C  0.76934027  0.22831811  0.10472983    -0.18700
C1995       C  0.77075097  0.21961985  0.08284002    -0.11000
C1996       C  0.75518772  0.22651494  0.06593644     0.21600
C1997       C  0.73868917  0.24253555  0.07134196    -0.20300
C1998       C  0.73729842  0.25119042  0.09305980    -0.11200
C1999       C  0.75407115  0.21691188  0.04284321    -0.15300
C2000       C  0.76896527  0.20260245  0.03332866    -0.29200
C2001       C  0.75094100  0.25214482  0.13392858    -0.03500
C2002       C  0.73305243  0.26364848  0.14240949    -0.40000
H2003       H  0.78132848  0.22251163  0.11754299     0.12800
H2004       H  0.78362970  0.20725274  0.07944161     0.12400
H2005       H  0.72649944  0.24828887  0.05868139     0.11800
H2006       H  0.72436954  0.26356627  0.09610386     0.12100
H2007       H  0.73939596  0.22228351  0.03280507     0.14800
H2008       H  0.78479817  0.19798268  0.04186941     0.13600
H2009       H  0.76503250  0.24766495  0.14521642     0.11300
H2010       H  0.71816248  0.26748739  0.13202209     0.13300
C2011       C  0.76954011  0.24466361  0.88540197     0.19400
C2012       C  0.79029094  0.24719756  0.89738910    -0.18700
C2013       C  0.79481654  0.23472280  0.91687149    -0.11000
C2014       C  0.77906560  0.21886050  0.92437748     0.21600
C2015       C  0.75845282  0.21586169  0.91207754    -0.20300
C2016       C  0.75371315  0.22868184  0.89278346    -0.11200
C2017       C  0.78292938  0.20809472  0.94669735    -0.15300
C2018       C  0.77440350  0.18811304  0.95202525    -0.29200
C2019       C  0.76604383  0.25769837  0.86432257    -0.03500
C2020       C  0.74541173  0.26324117  0.85523793    -0.40000
H2021       H  0.80292340  0.25916283  0.89184275     0.12800
H2022       H  0.81059924  0.23758787  0.92623415     0.12400
H2023       H  0.74560253  0.20421020  0.91777897     0.11800
H2024       H  0.73783275  0.22590193  0.88358899     0.12100
H2025       H  0.79005045  0.21835472  0.96004991     0.14800
H2026       H  0.76681342  0.17801638  0.93882484     0.13600
H2027       H  0.78159408  0.26272043  0.85568035     0.11300
H2028       H  0.72967379  0.25930287  0.86406751     0.13300
C2029       C  0.83543308  0.15417534  0.99117206     0.19400
C2030       C  0.83993074  0.13376514  0.98089482    -0.18700
C2031       C  0.86029873  0.12221308  0.98536461    -0.11000
C2032       C  0.87700269  0.13071085  0.00029576     0.21600
C2033       C  0.87308424  0.15160129  0.00984423    -0.20300
C2034       C  0.85245936  0.16316066  0.00550801    -0.11200
C2035       C  0.89857111  0.11802033  0.00563897    -0.15300
C2036       C  0.89857212  0.09570609  0.00664879    -0.29200
C2037       C  0.81269891  0.16495761  0.98629144    -0.03500
C2038       C  0.80294640  0.18149276  0.99819557    -0.40000
H2039       H  0.82743298  0.12649012  0.96948544     0.12800
H2040       H  0.86297900  0.10663444  0.97691223     0.12400
H2041       H  0.88580514  0.15878760  0.02105530     0.11800
H2042       H  0.84999876  0.17904745  0.01336496     0.12100
H2043       H  0.91434625  0.12705423  0.00900604     0.14800
H2044       H  0.88227899  0.08715636  0.00458488     0.13600
H2045       H  0.80240184  0.15735489  0.97308228     0.11300
H2046       H  0.81202502  0.18842663  0.01254568     0.13300
C2047       C  0.75814224  0.83751523  0.12434388     0.19400
C2048       C  0.78155816  0.83906443  0.11915035    -0.18700
C2049       C  0.78879376  0.83790805  0.09675239    -0.11000
C2050       C  0.77262589  0.83528418  0.07922892     0.21600
C2051       C  0.74917049  0.83530868  0.08429007    -0.20300
C2052       C  0.74192997  0.83672366  0.10661490    -0.11200
C2053       C  0.77969354  0.82891342  0.05632097    -0.15300
C2054       C  0.79879897  0.83625771  0.04617503    -0.29200
C2055       C  0.75147100  0.83468330  0.14827786    -0.03500
C2056       C  0.73325713  0.82236598  0.15438165    -0.40000
H2057       H  0.79435517  0.83977578  0.13252482     0.12800
H2058       H  0.80701416  0.83754432  0.09333395     0.12400
H2059       H  0.73644542  0.83339030  0.07098128     0.11800
H2060       H  0.72370301  0.83637023  0.10994850     0.12100
H2061       H  0.76884400  0.81700380  0.04759225     0.14800
H2062       H  0.80894667  0.84951623  0.05348003     0.13600
H2063       H  0.76342638  0.84042949  0.16116616     0.11300
H2064       H  0.72188232  0.81549593  0.14161022     0.13300
C2065       C  0.81924090  0.80795395  0.92717568     0.19400
C2066       C  0.82106109  0.78758177  0.91602656    -0.18700
C2067       C  0.81269812  0.78501729  0.89400119    -0.11000
C2068       C  0.80242788  0.80290306  0.88257828     0.21600
C2069       C  0.80192248  0.82361582  0.89312967    -0.20300
C2070       C  0.81012379  0.82616001  0.91521959    -0.11200
C2071       C  0.79202172  0.80081082  0.85974172    -0.15300
C2072       C  0.78348571  0.78182574  0.85112324    -0.29200
C2073       C  0.82499494  0.80855589  0.95170212    -0.03500
C2074       C  0.81902831  0.82490441  0.96587357    -0.40000
H2075       H  0.82824093  0.77331158  0.92468886     0.12800
H2076       H  0.81416230  0.76901992  0.88610032     0.12400
H2077       H  0.79447086  0.83777354  0.88448888     0.11800
H2078       H  0.80878750  0.84227449  0.92282449     0.12100
H2079       H  0.78994886  0.81609933  0.85019378     0.14800
H2080       H  0.78453555  0.76647789  0.86065809     0.13600
H2081       H  0.83205456  0.79345343  0.95895223     0.11300
H2082       H  0.81258688  0.84056696  0.95954877     0.13300
C2083       C  0.84826819  0.88958004  0.99507708     0.19400
C2084       C  0.86813381  0.89356661  0.98249759    -0.18700
C2085       C  0.88016455  0.91338296  0.98454095    -0.11000
C2086       C  0.87282568  0.92982790  0.99948454     0.21600
C2087       C  0.85226125  0.92651095  0.01121160    -0.20300
C2088       C  0.84009515  0.90652609  0.00915585    -0.11200
C2089       C  0.88680345  0.95017977  0.00313047    -0.15300
C2090       C  0.90986859  0.94940100  0.00214854    -0.29200
C2091       C  0.83802278  0.86699612  0.99376853    -0.03500
C2092       C  0.81960625  0.85981294  0.00525638    -0.40000
H2093       H  0.87473258  0.88105213  0.97129695     0.12800
H2094       H  0.89537161  0.91569329  0.97444374     0.12400
H2095       H  0.84603686  0.93907231  0.02255626     0.11800
H2096       H  0.82476711  0.90438616  0.01904104     0.12100
H2097       H  0.87823825  0.96554545  0.00728361     0.14800
H2098       H  0.91815280  0.93354225  0.99960874     0.13600
H2099       H  0.84748704  0.85493406  0.98408926     0.11300
H2100       H  0.81032236  0.87098697  0.01605342     0.13300
loop_ 
_geom_bond_atom_site_label_1 
_geom_bond_atom_site_label_2 
_geom_bond_distance 
_geom_bond_site_symmetry_2 
_ccdc_geom_bond_type 
N1            C5   1.362   1_554  A
N1            C2   1.355       .  A
N1         C2092   1.446       .  S
C2            C3   1.381       .  A
C2         C2054   1.478       .  S
C3            C4   1.371   1_554  A
C3            H6   1.082       .  S
C4            C5   1.387       .  A
C4            H7   1.082       .  S
C5         C2074   1.486       .  S
N8           C12   1.363       .  A
N8            C9   1.363   1_556  A
N8         C2038   1.455       .  S
C9           C10   1.389       .  A
C9         C2000   1.496       .  S
C10          C11   1.367   1_554  A
C10          H13   1.082       .  S
C11          C12   1.377       .  A
C11          H14   1.083       .  S
C12        C2018   1.474       .  S
N15          C19   1.360   1_554  A
N15          C16   1.354       .  A
N15        C1982   1.445   1_554  S
C16          C17   1.382       .  A
C16        C1948   1.481       .  S
C17          C18   1.372   1_554  A
C17          H20   1.082       .  S
C18          C19   1.389       .  A
C18          H21   1.080       .  S
C19        C1966   1.492       .  S
N22          C26   1.358       .  A
N22          C23   1.360       .  A
N22        C1928   1.447       .  S
C23          C24   1.383       .  A
C23        C1912   1.480       .  S
C24          C25   1.369       .  A
C24          H27   1.082       .  S
C25          C26   1.386       .  A
C25          H28   1.082       .  S
C26        C1892   1.486   1_545  S
N29          C33   1.359       .  A
N29          C30   1.359       .  A
N29        C1876   1.453       .  S
C30          C31   1.387       .  A
C30        C1840   1.483       .  S
C31          C32   1.367       .  A
C31          H34   1.082       .  S
C32          C33   1.385       .  A
C32          H35   1.081       .  S
C33        C1856   1.487   1_655  S
N36          C40   1.362       .  A
N36          C37   1.356       .  A
N36        C1820   1.447       .  S
C37          C38   1.381       .  A
C37        C1784   1.481       .  S
C38          C39   1.370       .  A
C38          H41   1.082       .  S
C39          C40   1.391       .  A
C39          H42   1.081       .  S
C40        C1804   1.492   1_655  S
N43          C47   1.358       .  A
N43          C44   1.354       .  A
N43        C1768   1.443       .  S
C44          C45   1.383       .  A
C44        C1748   1.479       .  S
C45          C46   1.374       .  A
C45          H48   1.082       .  S
C46          C47   1.385       .  A
C46          H49   1.082       .  S
C47        C1730   1.482   1_545  S
N50          C54   1.368       .  A
N50          C51   1.367       .  A
N50        C1712   1.455       .  S
C51          C52   1.384       .  A
C51        C1694   1.499       .  S
C52          C53   1.369       .  A
C52          H55   1.081       .  S
C53          C54   1.386       .  A
C53          H56   1.082   1_655  S
C54        C1676   1.495   1_655  S
N57          C61   1.358       .  A
N57          C58   1.354       .  A
N57        C1658   1.445       .  S
C58          C59   1.384       .  A
C58        C1642   1.477       .  S
C59          C60   1.370       .  A
C59          H62   1.082       .  S
C60          C61   1.386       .  A
C60          H63   1.082       .  S
C61        C1624   1.485   1_545  S
N64          C68   1.364       .  A
N64          C65   1.360       .  A
N64        C1570   1.452       .  S
C65          C66   1.385       .  A
C65        C1586   1.488       .  S
C66          C67   1.366       .  A
C66          H69   1.082       .  S
C67          C68   1.386       .  A
C67          H70   1.081   1_655  S
C68        C1604   1.491   1_655  S
Zr71         O72   2.438       .  S
Zr71         O73   2.422       .  S
Zr71         O74   2.413       .  S
Zr71         O77   2.399       .  S
Zr71         O79   2.376       .  S
Zr71         O80   2.380       .  S
Zr71         O81   2.400       .  S
Zr71         O82   2.398       .  S
O72         H128   0.990       .  S
O72         H136   0.990       .  S
O73          C93   1.281       .  A
O74          C95   1.282       .  A
O75         Zr85   2.463       .  S
O75          C94   1.290       .  A
O76         Zr84   2.456       .  S
O76          C95   1.289       .  A
O77          C94   1.280       .  A
O78         Zr86   2.456       .  S
O78          C93   1.288       .  A
O79         Zr84   2.388       .  S
O79         Zr86   2.368       .  S
O80         Zr85   2.390       .  S
O80         Zr86   2.369       .  S
O80         H115   0.965       .  S
O81         Zr84   2.402       .  S
O81        Zr101   2.402       .  S
O81         H118   0.967       .  S
O82         Zr85   2.400       .  S
O82        Zr101   2.401       .  S
Zr83        O108   2.436       .  S
Zr83        O102   2.422       .  S
Zr83        O110   2.404       .  S
Zr83         O98   2.406       .  S
Zr83         O89   2.399       .  S
Zr83         O90   2.401       .  S
Zr83         O91   2.375       .  S
Zr83         O92   2.376       .  S
Zr84        O103   2.435       .  S
Zr84         O96   2.436       .  S
Zr84         O97   2.467       .  S
Zr84         O90   2.399       .  S
Zr84         O91   2.388       .  S
Zr85         O87   2.435       .  S
Zr85        O109   2.436       .  S
Zr85        O111   2.472       .  S
Zr85         O89   2.400       .  S
Zr85         O92   2.384       .  S
Zr86        O112   2.435       .  S
Zr86        O113   2.435       .  S
Zr86         O88   2.438       .  S
Zr86         O89   2.410       .  S
Zr86         O90   2.404       .  S
O87         H124   0.990       .  S
O88         H119   0.990       .  S
O88         H133   0.990       .  S
O90         H116   0.965       .  S
O91        Zr101   2.367       .  S
O92        Zr101   2.369       .  S
O92         H117   0.966       .  S
C93        C1516   1.481       .  S
C94        C1478   1.478       .  S
C95        C1498   1.482       .  S
O96         H132   0.990       .  S
O97          C99   1.291       .  A
O98          C99   1.282       .  A
C99        C1532   1.487       .  S
O100       Zr101   2.434       .  S
O100        H129   0.990       .  S
Zr101       O104   2.434       .  S
Zr101       O105   2.439       .  S
Zr101       O106   2.445       .  S
O102        C107   1.282       .  A
O103        H120   0.990       .  S
O103        H135   0.990       .  S
O104        H121   0.990       .  S
O105        H125   0.990       .  S
O105        H134   0.990       .  S
O106        C107   1.286       .  A
C107       C1550   1.478       .  S
O108        H127   0.990       .  S
O108        H131   0.990       .  S
O109        H123   0.990       .  S
O109        H130   0.990       .  S
O110        C114   1.281       .  A
O111        C114   1.292       .  A
O112        H122   0.990       .  S
O113        H126   0.990       .  S
C114       C1606   1.487       .  S
N137        C141   1.361       .  A
N137        C138   1.357       .  A
N137       C1444   1.444       .  S
C138        C139   1.383       .  A
C138       C1552   1.483       .  S
C139        C140   1.370       .  A
C139        H142   1.082       .  S
C140        C141   1.387       .  A
C140        H143   1.082       .  S
C141       C1460   1.490       .  S
Zr144       O145   2.437       .  S
Zr144       O146   2.410       .  S
Zr144       O147   2.398       .  S
Zr144       O150   2.413       .  S
Zr144       O152   2.377       .  S
Zr144       O153   2.376       .  S
Zr144       O154   2.399       .  S
Zr144       O155   2.396       .  S
O145        H201   0.990       .  S
O145        H209   0.990       .  S
O146        C166   1.280       .  A
O147        C168   1.279       .  A
O148       Zr158   2.469       .  S
O148        C167   1.291       .  A
O149       Zr157   2.462       .  S
O149        C168   1.290       .  A
O150        C167   1.282       .  A
O151       Zr159   2.455       .  S
O151        C166   1.288       .  A
O152       Zr157   2.386       .  S
O152       Zr159   2.366       .  S
O153       Zr158   2.387       .  S
O153       Zr159   2.368       .  S
O153        H188   0.965       .  S
O154       Zr157   2.401       .  S
O154       Zr174   2.397       .  S
O154        H191   0.965       .  S
O155       Zr158   2.399       .  S
O155       Zr174   2.407       .  S
Zr156       O181   2.436       .  S
Zr156       O175   2.412       .  S
Zr156       O183   2.422       .  S
Zr156       O171   2.409       .  S
Zr156       O162   2.399       .  S
Zr156       O163   2.403       .  S
Zr156       O164   2.378       .  S
Zr156       O165   2.380       .  S
Zr157       O176   2.436       .  S
Zr157       O169   2.435       .  S
Zr157       O170   2.464       .  S
Zr157       O163   2.400       .  S
Zr157       O164   2.385       .  S
Zr158       O160   2.435       .  S
Zr158       O182   2.437       .  S
Zr158       O184   2.465       .  S
Zr158       O162   2.403       .  S
Zr158       O165   2.391       .  S
Zr159       O185   2.436       .  S
Zr159       O186   2.436       .  S
Zr159       O161   2.438       .  S
Zr159       O162   2.412       .  S
Zr159       O163   2.399       .  S
O160        H197   0.990       .  S
O161        H192   0.990       .  S
O161        H206   0.990       .  S
O163        H189   0.966       .  S
O164       Zr174   2.369       .  S
O165       Zr174   2.370       .  S
O165        H190   0.966       .  S
C166       C1388   1.476       .  S
C167       C1406   1.486       .  S
C168       C1424   1.482       .  S
O169        H205   0.990       .  S
O170        C172   1.291       .  A
O171        C172   1.282       .  A
C172       C1462   1.485       .  S
O173       Zr174   2.435       .  S
O173        H202   0.990       .  S
Zr174       O177   2.436       .  S
Zr174       O178   2.437       .  S
Zr174       O179   2.439       .  S
O175        C180   1.279       .  A
O176        H193   0.990       .  S
O176        H208   0.990       .  S
O177        H194   0.990       .  S
O178        H198   0.990       .  S
O178        H207   0.990       .  S
O179        C180   1.286       .  A
C180       C1946   1.472       .  S
O181        H200   0.990       .  S
O181        H204   0.990       .  S
O182        H196   0.990       .  S
O182        H203   0.990       .  S
O183        C187   1.284       .  A
O184        C187   1.291       .  A
O185        H195   0.990       .  S
O186        H199   0.990       .  S
C187       C1678   1.487       .  S
Zr210       O211   2.437       .  S
Zr210       O212   2.407       .  S
Zr210       O213   2.405       .  S
Zr210       O216   2.412       .  S
Zr210       O218   2.372       .  S
Zr210       O219   2.381       .  S
Zr210       O220   2.397       .  S
Zr210       O221   2.392       .  S
O211        H267   0.990       .  S
O211        H275   0.990       .  S
O212        C232   1.279       .  A
O213        C234   1.281       .  A
O214       Zr224   2.465       .  S
O214        C233   1.291       .  A
O215       Zr223   2.447       .  S
O215        C234   1.287       .  A
O216        C233   1.282       .  A
O217       Zr225   2.430       .  S
O217        C232   1.285       .  A
O218       Zr223   2.376       .  S
O218       Zr225   2.367       .  S
O219       Zr224   2.387       .  S
O219       Zr225   2.371       .  S
O219        H254   0.966       .  S
O220       Zr223   2.398       .  S
O220       Zr240   2.398       .  S
O220        H257   0.968       .  S
O221       Zr224   2.402       .  S
O221       Zr240   2.401       .  S
Zr222       O247   2.438       .  S
Zr222       O241   2.413       .  S
Zr222       O249   2.406       .  S
Zr222       O237   2.417       .  S
Zr222       O228   2.395       .  S
Zr222       O229   2.394       .  S
Zr222       O230   2.377       .  S
Zr222       O231   2.380       .  S
Zr223       O242   2.434       .  S
Zr223       O235   2.436       .  S
Zr223       O236   2.442       .  S
Zr223       O229   2.398       .  S
Zr223       O230   2.386       .  S
Zr224       O226   2.434       .  S
Zr224       O248   2.436       .  S
Zr224       O250   2.466       .  S
Zr224       O228   2.399       .  S
Zr224       O231   2.388       .  S
Zr225       O251   2.436       .  S
Zr225       O252   2.437       .  S
Zr225       O227   2.438       .  S
Zr225       O228   2.399       .  S
Zr225       O229   2.398       .  S
O226        H263   0.990       .  S
O227        H258   0.990       .  S
O227        H272   0.990       .  S
O229        H255   0.965       .  S
O230       Zr240   2.371       .  S
O231       Zr240   2.367       .  S
O231        H256   0.965       .  S
C232       C1640   1.468       .  S
C233       C2002   1.485       .  S
C234       C1588   1.478       .  S
O235        H271   0.990       .  S
O236        C238   1.287       .  A
O237        C238   1.283       .  A
C238       C1334   1.476       .  S
O239       Zr240   2.434       .  S
O239        H268   0.990       .  S
Zr240       O243   2.435       .  S
Zr240       O244   2.436       .  S
Zr240       O245   2.444       .  S
O241        C246   1.280       .  A
O242        H259   0.990       .  S
O242        H274   0.990       .  S
O243        H260   0.990       .  S
O244        H264   0.990       .  S
O244        H273   0.990       .  S
O245        C246   1.287       .  A
C246       C1352   1.470       .  S
O247        H266   0.990       .  S
O247        H270   0.990       .  S
O248        H262   0.990       .  S
O248        H269   0.990       .  S
O249        C253   1.282       .  A
O250        C253   1.291       .  A
O251        H261   0.990       .  S
O252        H265   0.990       .  S
C253       C1370   1.483       .  S
Zr276       O277   2.438       .  S
Zr276       O278   2.414       .  S
Zr276       O279   2.405       .  S
Zr276       O282   2.404       .  S
Zr276       O284   2.376       .  S
Zr276       O285   2.378       .  S
Zr276       O286   2.396       .  S
Zr276       O287   2.392       .  S
O277        H333   0.990       .  S
O277        H341   0.990       .  S
O278        C298   1.281       .  A
O279        C300   1.281       .  A
O280       Zr290   2.464       .  S
O280        C299   1.290       .  A
O281       Zr289   2.457       .  S
O281        C300   1.290       .  A
O282        C299   1.281       .  A
O283       Zr291   2.446       .  S
O283        C298   1.286       .  A
O284       Zr289   2.393       .  S
O284       Zr291   2.369       .  S
O285       Zr290   2.388       .  S
O285       Zr291   2.369       .  S
O285        H320   0.967       .  S
O286       Zr289   2.404       .  S
O286       Zr306   2.391       .  S
O286        H323   0.967       .  S
O287       Zr290   2.396       .  S
O287       Zr306   2.398       .  S
Zr288       O313   2.439       .  S
Zr288       O307   2.423       .  S
Zr288       O315   2.410       .  S
Zr288       O303   2.425       .  S
Zr288       O294   2.404       .  S
Zr288       O295   2.400       .  S
Zr288       O296   2.375       .  S
Zr288       O297   2.382       .  S
Zr289       O308   2.435       .  S
Zr289       O301   2.437       .  S
Zr289       O302   2.476       .  S
Zr289       O295   2.395       .  S
Zr289       O296   2.387       .  S
Zr290       O292   2.435       .  S
Zr290       O314   2.435       .  S
Zr290       O316   2.453       .  S
Zr290       O294   2.400       .  S
Zr290       O297   2.391       .  S
Zr291       O317   2.435       .  S
Zr291       O318   2.435       .  S
Zr291       O293   2.436       .  S
Zr291       O294   2.406       .  S
Zr291       O295   2.402       .  S
O292        H329   0.990       .  S
O293        H324   0.990       .  S
O293        H338   0.990       .  S
O295        H321   0.967       .  S
O296       Zr306   2.375       .  S
O297       Zr306   2.373       .  S
O297        H322   0.966       .  S
C298       C1280   1.478       .  S
C299       C1298   1.486       .  S
C300       C1316   1.480       .  S
O301        H337   0.990       .  S
O302        C304   1.292       .  A
O303        C304   1.284       .  A
C304       C1696   1.494       .  S
O305       Zr306   2.436       .  S
O305        H334   0.990       .  S
Zr306       O309   2.435       .  S
Zr306       O310   2.439       .  S
Zr306       O311   2.427       .  S
O307        C312   1.283       .  A
O308        H325   0.990       .  S
O308        H340   0.990       .  S
O309        H326   0.990       .  S
O310        H330   0.990       .  S
O310        H339   0.990       .  S
O311        C312   1.282       .  A
C312       C2056   1.474       .  S
O313        H332   0.990       .  S
O313        H336   0.990       .  S
O314        H328   0.990       .  S
O314        H335   0.990       .  S
O315        C319   1.282       .  A
O316        C319   1.288       .  A
O317        H327   0.990       .  S
O318        H331   0.989       .  S
C319       C1622   1.481       .  S
N342        C346   1.362   1_554  A
N342        C343   1.360       .  A
N342       C1246   1.447       .  S
C343        C344   1.385       .  A
C343       C1534   1.491       .  S
C344        C345   1.367   1_554  A
C344        H347   1.081       .  S
C345        C346   1.385       .  A
C345        H348   1.082       .  S
C346       C1262   1.489       .  S
Zr349       O350   2.437       .  S
Zr349       O351   2.418       .  S
Zr349       O352   2.415       .  S
Zr349       O355   2.407       .  S
Zr349       O357   2.370       .  S
Zr349       O358   2.377       .  S
Zr349       O359   2.401       .  S
Zr349       O360   2.396       .  S
O350        H406   0.990       .  S
O350        H414   0.990       .  S
O351        C371   1.281       .  A
O352        C373   1.283       .  A
O353       Zr363   2.471       .  S
O353        C372   1.293       .  A
O354       Zr362   2.454       .  S
O354        C373   1.288       .  A
O355        C372   1.282       .  A
O356       Zr364   2.449       .  S
O356        C371   1.287       .  A
O357       Zr362   2.385       .  S
O357       Zr364   2.360       .  S
O358       Zr363   2.386       .  S
O358       Zr364   2.369       .  S
O358        H393   0.965       .  S
O359       Zr362   2.407       .  S
O359       Zr379   2.400       .  S
O359        H396   0.965       .  S
O360       Zr363   2.405       .  S
O360       Zr379   2.398       .  S
Zr361       O386   2.437       .  S
Zr361       O380   2.418       .  S
Zr361       O388   2.411       .  S
Zr361       O376   2.401       .  S
Zr361       O367   2.393       .  S
Zr361       O368   2.400       .  S
Zr361       O369   2.378       .  S
Zr361       O370   2.378       .  S
Zr362       O381   2.438       .  S
Zr362       O374   2.435       .  S
Zr362       O375   2.457       .  S
Zr362       O368   2.400       .  S
Zr362       O369   2.382       .  S
Zr363       O365   2.434       .  S
Zr363       O387   2.437       .  S
Zr363       O389   2.477       .  S
Zr363       O367   2.398       .  S
Zr363       O370   2.384       .  S
Zr364       O390   2.435       .  S
Zr364       O391   2.434       .  S
Zr364       O366   2.438       .  S
Zr364       O367   2.410       .  S
Zr364       O368   2.404       .  S
O365        H402   0.990       .  S
O366        H397   0.990       .  S
O366        H411   0.990       .  S
O368        H394   0.965       .  S
O369       Zr379   2.367       .  S
O370       Zr379   2.369       .  S
O370        H395   0.966       .  S
C371       C1750   1.477       .  S
C372       C1264   1.485       .  S
C373       C1858   1.484       .  S
O374        H410   0.989       .  S
O375        C377   1.289       .  A
O376        C377   1.281       .  A
C377       C1190   1.480       .  S
O378       Zr379   2.436       .  S
O378        H407   0.990       .  S
Zr379       O382   2.435       .  S
Zr379       O383   2.439       .  S
Zr379       O384   2.434       .  S
O380        C385   1.281       .  A
O381        H398   0.990       .  S
O381        H413   0.990       .  S
O382        H399   0.990       .  S
O383        H403   0.990       .  S
O383        H412   0.990       .  S
O384        C385   1.286       .  A
C385       C1208   1.476       .  S
O386        H405   0.990       .  S
O386        H409   0.990       .  S
O387        H401   0.990       .  S
O387        H408   0.990       .  S
O388        C392   1.282       .  A
O389        C392   1.293       .  A
O390        H400   0.990       .  S
O391        H404   0.990       .  S
C392       C1226   1.489       .  S
Zr415       O416   2.436       .  S
Zr415       O417   2.411       .  S
Zr415       O418   2.418       .  S
Zr415       O421   2.417       .  S
Zr415       O423   2.376       .  S
Zr415       O424   2.380       .  S
Zr415       O425   2.400       .  S
Zr415       O426   2.402       .  S
O416        H472   0.990       .  S
O416        H480   0.990       .  S
O417        C437   1.280       .  A
O418        C439   1.283       .  A
O419       Zr429   2.471       .  S
O419        C438   1.292       .  A
O420       Zr428   2.448       .  S
O420        C439   1.288       .  A
O421        C438   1.284       .  A
O422       Zr430   2.454       .  S
O422        C437   1.288       .  A
O423       Zr428   2.387       .  S
O423       Zr430   2.368       .  S
O424       Zr429   2.389       .  S
O424       Zr430   2.358       .  S
O424        H459   0.965       .  S
O425       Zr428   2.400       .  S
O425       Zr445   2.403       .  S
O425        H462   0.967       .  S
O426       Zr429   2.400       .  S
O426       Zr445   2.409       .  S
Zr427       O452   2.438       .  S
Zr427       O446   2.412       .  S
Zr427       O454   2.414       .  S
Zr427       O442   2.414       .  S
Zr427       O433   2.402       .  S
Zr427       O434   2.399       .  S
Zr427       O435   2.371       .  S
Zr427       O436   2.382       .  S
Zr428       O447   2.435       .  S
Zr428       O440   2.435       .  S
Zr428       O441   2.452       .  S
Zr428       O434   2.403       .  S
Zr428       O435   2.379       .  S
Zr429       O431   2.435       .  S
Zr429       O453   2.435       .  S
Zr429       O455   2.463       .  S
Zr429       O433   2.406       .  S
Zr429       O436   2.393       .  S
Zr430       O456   2.436       .  S
Zr430       O457   2.435       .  S
Zr430       O432   2.436       .  S
Zr430       O433   2.408       .  S
Zr430       O434   2.403       .  S
O431        H468   0.990       .  S
O432        H463   0.990       .  S
O432        H477   0.990       .  S
O434        H460   0.967       .  S
O435       Zr445   2.368       .  S
O436       Zr445   2.369       .  S
O436        H461   0.966       .  S
C437       C1732   1.477       .  S
C438       C1802   1.488       .  S
C439       C1964   1.482       .  S
O440        H476   0.990       .  S
O441        C443   1.288       .  A
O442        C443   1.282       .  A
C443       C1154   1.483       .  S
O444       Zr445   2.435       .  S
O444        H473   0.990       .  S
Zr445       O448   2.435       .  S
Zr445       O449   2.439       .  S
Zr445       O450   2.442       .  S
O446        C451   1.279       .  A
O447        H464   0.990       .  S
O447        H479   0.990       .  S
O448        H465   0.990       .  S
O449        H469   0.990       .  S
O449        H478   0.990       .  S
O450        C451   1.286       .  A
C451       C1172   1.474       .  S
O452        H471   0.990       .  S
O452        H475   0.990       .  S
O453        H467   0.990       .  S
O453        H474   0.990       .  S
O454        C458   1.283       .  A
O455        C458   1.290       .  A
O456        H466   0.990       .  S
O457        H470   0.990       .  S
C458       C1136   1.485       .  S
Zr481       O482   2.438       .  S
Zr481       O483   2.415       .  S
Zr481       O484   2.401       .  S
Zr481       O487   2.405       .  S
Zr481       O489   2.372       .  S
Zr481       O490   2.379       .  S
Zr481       O491   2.396       .  S
Zr481       O492   2.392       .  S
O482        H538   0.990       .  S
O482        H546   0.990       .  S
O483        C503   1.280       .  A
O484        C505   1.280       .  A
O485       Zr495   2.457       .  S
O485        C504   1.289       .  A
O486       Zr494   2.467       .  S
O486        C505   1.291       .  A
O487        C504   1.282       .  A
O488       Zr496   2.435       .  S
O488        C503   1.286       .  A
O489       Zr494   2.381       .  S
O489       Zr496   2.368       .  S
O490       Zr495   2.386       .  S
O490       Zr496   2.362       .  S
O490        H525   0.965       .  S
O491       Zr494   2.408       .  S
O491       Zr511   2.403       .  S
O491        H528   0.967       .  S
O492       Zr495   2.398       .  S
O492       Zr511   2.400       .  S
Zr493       O518   2.438       .  S
Zr493       O512   2.413       .  S
Zr493       O520   2.404       .  S
Zr493       O508   2.398       .  S
Zr493       O499   2.396       .  S
Zr493       O500   2.395       .  S
Zr493       O501   2.374       .  S
Zr493       O502   2.376       .  S
Zr494       O513   2.437       .  S
Zr494       O506   2.434       .  S
Zr494       O507   2.459       .  S
Zr494       O500   2.402       .  S
Zr494       O501   2.388       .  S
Zr495       O497   2.433       .  S
Zr495       O519   2.437       .  S
Zr495       O521   2.463       .  S
Zr495       O499   2.399       .  S
Zr495       O502   2.389       .  S
Zr496       O522   2.434       .  S
Zr496       O523   2.434       .  S
Zr496       O498   2.438       .  S
Zr496       O499   2.402       .  S
Zr496       O500   2.399       .  S
O497        H534   0.990       .  S
O498        H529   0.990       .  S
O498        H543   0.990       .  S
O500        H526   0.967       .  S
O501       Zr511   2.371       .  S
O502       Zr511   2.369       .  S
O502        H527   0.965       .  S
C503       C1910   1.469       .  S
C504       C1838   1.477       .  S
C505       C2020   1.486       .  S
O506        H542   0.990       .  S
O507        C509   1.289       .  A
O508        C509   1.280       .  A
C509       C1100   1.481       .  S
O510       Zr511   2.438       .  S
O510        H539   0.990       .  S
Zr511       O514   2.435       .  S
Zr511       O515   2.441       .  S
Zr511       O516   2.441       .  S
O512        C517   1.280       .  A
O513        H530   0.990       .  S
O513        H545   0.990       .  S
O514        H531   0.990       .  S
O515        H535   0.990       .  S
O515        H544   0.990       .  S
O516        C517   1.286       .  A
C517       C1120   1.474       .  S
O518        H537   0.990       .  S
O518        H541   0.990       .  S
O519        H533   0.990       .  S
O519        H540   0.990       .  S
O520        C524   1.281       .  A
O521        C524   1.290       .  A
O522        H532   0.990       .  S
O523        H536   0.989       .  S
C524       C1082   1.480       .  S
Zr547       O548   2.437       .  S
Zr547       O549   2.417       .  S
Zr547       O550   2.402       .  S
Zr547       O553   2.409       .  S
Zr547       O555   2.373       .  S
Zr547       O556   2.377       .  S
Zr547       O557   2.394       .  S
Zr547       O558   2.397       .  S
O548        H604   0.990       .  S
O548        H612   0.990       .  S
O549        C569   1.282       .  A
O550        C571   1.281       .  A
O551       Zr561   2.468       .  S
O551        C570   1.290       .  A
O552       Zr560   2.457       .  S
O552        C571   1.290       .  A
O553        C570   1.281       .  A
O554       Zr562   2.444       .  S
O554        C569   1.285       .  A
O555       Zr560   2.391       .  S
O555       Zr562   2.367       .  S
O556       Zr561   2.389       .  S
O556       Zr562   2.372       .  S
O556        H591   0.966       .  S
O557       Zr560   2.400       .  S
O557       Zr577   2.395       .  S
O557        H594   0.967       .  S
O558       Zr561   2.397       .  S
O558       Zr577   2.406       .  S
Zr559       O584   2.440       .  S
Zr559       O578   2.428       .  S
Zr559       O586   2.406       .  S
Zr559       O574   2.404       .  S
Zr559       O565   2.398       .  S
Zr559       O566   2.399       .  S
Zr559       O567   2.373       .  S
Zr559       O568   2.378       .  S
Zr560       O579   2.435       .  S
Zr560       O572   2.435       .  S
Zr560       O573   2.466       .  S
Zr560       O566   2.399       .  S
Zr560       O567   2.385       .  S
Zr561       O563   2.437       .  S
Zr561       O585   2.436       .  S
Zr561       O587   2.459       .  S
Zr561       O565   2.404       .  S
Zr561       O568   2.390       .  S
Zr562       O588   2.436       .  S
Zr562       O589   2.435       .  S
Zr562       O564   2.437       .  S
Zr562       O565   2.404       .  S
Zr562       O566   2.401       .  S
O563        H600   0.990       .  S
O564        H595   0.990       .  S
O564        H609   0.990       .  S
O566        H592   0.966       .  S
O567       Zr577   2.369       .  S
O568       Zr577   2.375       .  S
O568        H593   0.966       .  S
C569       C1786   1.477       .  S
C570       C1894   1.485       .  S
C571       C2072   1.482       .  S
O572        H608   0.990       .  S
O573        C575   1.290       .  A
O574        C575   1.281       .  A
C575       C1046   1.484       .  S
O576       Zr577   2.436       .  S
O576        H605   0.990       .  S
Zr577       O580   2.437       .  S
Zr577       O581   2.441       .  S
Zr577       O582   2.434       .  S
O578        C583   1.284       .  A
O579        H596   0.990       .  S
O579        H611   0.990       .  S
O580        H597   0.990       .  S
O581        H601   0.990       .  S
O581        H610   0.989       .  S
O582        C583   1.284       .  A
C583       C1064   1.477       .  S
O584        H603   0.990       .  S
O584        H607   0.990       .  S
O585        H599   0.990       .  S
O585        H606   0.990       .  S
O586        C590   1.281       .  A
O587        C590   1.290       .  A
O588        H598   0.990       .  S
O589        H602   0.990       .  S
C590       C1028   1.483       .  S
N613        C617   1.361       .  A
N613        C614   1.364       .  A
N613       C1012   1.451       .  S
C614        C615   1.385       .  A
C614       C1066   1.488       .  S
C615        C616   1.365       .  A
C615        H618   1.082       .  S
C616        C617   1.385       .  A
C616        H619   1.082       .  S
C617       C1156   1.490       .  S
N620        C624   1.359       .  A
N620        C621   1.353       .  A
N620        C992   1.445       .  S
C621        C622   1.381       .  A
C621       C1210   1.476       .  S
C622        C623   1.372       .  A
C622        H625   1.082       .  S
C623        C624   1.386       .  A
C623        H626   1.082       .  S
C624       C1174   1.479       .  S
N627        C631   1.366       .  A
N627        C628   1.368       .  A
N627        C976   1.457       .  S
C628        C629   1.383       .  A
C628       C1102   1.484       .  S
C629        C630   1.362       .  A
C629        H632   1.083       .  S
C630        C631   1.384       .  A
C630        H633   1.082       .  S
C631       C1228   1.493       .  S
N634        C638   1.361       .  A
N634        C635   1.362       .  A
N634        C958   1.455       .  S
C635        C636   1.383       .  A
C635       C1118   1.479       .  S
C636        C637   1.369       .  A
C636        H639   1.083       .  S
C637        C638   1.387       .  A
C637        H640   1.081       .  S
C638       C1048   1.491       .  S
N641        C645   1.363       .  A
N641        C642   1.360       .  A
N641        C940   1.452       .  S
C642        C643   1.385       .  A
C642       C1372   1.488       .  S
C643        C644   1.366       .  A
C643        H646   1.082       .  S
C644        C645   1.387       .  A
C644        H647   1.081       .  S
C645       C1496   1.491       .  S
N648        C652   1.354       .  A
N648        C649   1.358       .  A
N648        C920   1.444       .  S
C649        C650   1.385       .  A
C649       C1354   1.479       .  S
C650        C651   1.370       .  A
C650        H653   1.082       .  S
C651        C652   1.383       .  A
C651        H654   1.082       .  S
C652       C1318   1.480       .  S
N655        C659   1.363       .  A
N655        C656   1.361       .  A
N655        C902   1.453       .  S
C656        C657   1.383       .  A
C656       C1300   1.487       .  S
C657        C658   1.365       .  A
C657        H660   1.081       .  S
C658        C659   1.387       .  A
C658        H661   1.082       .  S
C659       C1426   1.486       .  S
N662        C666   1.361       .  A
N662        C663   1.363       .  A
N662        C886   1.451       .  S
C663        C664   1.382       .  A
C663       C1514   1.487       .  S
C664        C665   1.369       .  A
C664        H667   1.082       .  S
C665        C666   1.388       .  A
C665        H668   1.081       .  S
C666       C1408   1.493       .  S
N669        C673   1.360       .  A
N669        C670   1.357       .  A
N669        C866   1.442       .  S
C670        C671   1.383       .  A
C670       C1282   1.482       .  S
C671        C672   1.368       .  A
C671        H674   1.082       .  S
C672        C673   1.385       .  A
C672        H675   1.082       .  S
C673       C1030   1.484       .  S
N676        C680   1.360       .  A
N676        C677   1.357       .  A
N676        C850   1.448       .  S
C677        C678   1.385       .  A
C677       C1336   1.484       .  S
C678        C679   1.367       .  A
C678        H681   1.082       .  S
C679        C680   1.387       .  A
C679        H682   1.081       .  S
C680       C1084   1.488       .  S
N683        C687   1.359       .  A
N683        C684   1.360       .  A
N683        C830   1.450       .  S
C684        C685   1.384       .  A
C684       C1390   1.484       .  S
C685        C686   1.371       .  A
C685        H688   1.082       .  S
C686        C687   1.387       .  A
C686        H689   1.081       .  S
C687       C1138   1.490       .  S
N690        C694   1.360       .  A
N690        C691   1.362       .  A
N690        C812   1.450       .  S
C691        C692   1.387       .  A
C691       C1480   1.486       .  S
C692        C693   1.366       .  A
C692        H695   1.082       .  S
C693        C694   1.384       .  A
C693        H696   1.082       .  S
C694       C1192   1.486       .  S
O697       Zr733   2.459   1_565  S
O697        C708   1.296       .  A
O698       Zr732   2.430   1_565  S
O698        C709   1.290       .  A
O699       Zr705   2.467   1_556  S
O699        C710   1.297       .  A
O700       Zr705   2.451       .  S
O700        C711   1.295       .  A
O701       Zr735   2.455   1_565  S
O701        C711   1.295       .  A
O702       Zr734   2.441   1_565  S
O702        C710   1.293       .  A
O703       Zr705   2.451   1_455  S
O703        C709   1.294       .  A
O704       Zr705   2.426       .  S
O704        C708   1.290       .  A
Zr705       O706   2.345   1_665  S
Zr705       O707   2.344   1_564  S
Zr705       O715   2.351   1_565  S
Zr705       O713   2.333   1_664  S
O706       Zr732   2.329       .  S
O706       Zr735   2.339   1_455  S
O707       Zr733   2.350   1_556  S
O707       Zr734   2.347       .  S
C708       C2090   1.476       .  S
C709       C1984   1.475       .  S
C710       C1822   1.490       .  S
C711       C1714   1.486       .  S
H712        O713   0.965       .  S
O713       Zr732   2.335   1_556  S
O713       Zr734   2.339   1_455  S
H714        O715   0.966   1_565  S
O715       Zr733   2.335       .  S
O715       Zr735   2.339       .  S
O716       Zr732   2.409       .  S
O716        C739   1.286       .  A
O717       Zr733   2.439       .  S
O717        C740   1.292       .  A
O718       Zr734   2.461   1_455  S
O718        C741   1.296       .  A
O719       Zr735   2.431   1_455  S
O719        C742   1.290       .  A
O720       Zr735   2.434       .  S
O720        C743   1.291       .  A
O721       Zr734   2.462       .  S
O721        C744   1.296       .  A
O722       Zr736   2.460   1_556  S
O722        C745   1.295       .  A
O723       Zr736   2.471       .  S
O723        C746   1.298       .  A
O724       Zr734   2.438       .  S
O724        C745   1.293       .  A
O725       Zr735   2.445       .  S
O725        C746   1.294       .  A
O726       Zr732   2.430   1_556  S
O726        C741   1.290       .  A
O727       Zr733   2.430   1_556  S
O727        C744   1.290       .  A
O728       Zr733   2.461       .  S
O728        C743   1.296       .  A
O729       Zr732   2.457       .  S
O729        C742   1.295       .  A
O730       Zr736   2.485   1_455  S
O730        C739   1.300       .  A
O731       Zr736   2.482       .  S
O731        C740   1.300       .  A
Zr732       O738   2.348   1_554  S
Zr732       O750   2.337       .  S
Zr733       O737   2.347       .  S
Zr733       O748   2.352   1_554  S
Zr734       O738   2.349   1_655  S
Zr734       O748   2.348       .  S
Zr735       O737   2.347       .  S
Zr735       O750   2.344   1_655  S
Zr736       O737   2.362       .  S
Zr736       O738   2.356   1_654  S
Zr736       O750   2.359   1_655  S
Zr736       O748   2.358   1_554  S
C739       C1244   1.479       .  S
C740       C2036   1.490       .  S
C741       C1766   1.479       .  S
C742       C1442   1.480       .  S
C743       C1660   1.482       .  S
C744       C1930   1.480       .  S
C745       C1874   1.484       .  S
C746       C1568   1.488       .  S
H747        O748   0.965       .  S
H749        O750   0.966       .  S
O751       Zr787   2.447       .  S
O751        C762   1.293       .  A
O752       Zr786   2.467       .  S
O752        C763   1.297       .  A
O753       Zr759   2.429       .  S
O753        C764   1.289       .  A
O754       Zr759   2.440       .  S
O754        C765   1.293       .  A
O755       Zr789   2.460       .  S
O755        C765   1.295       .  A
O756       Zr788   2.456       .  S
O756        C764   1.295       .  A
O757       Zr759   2.442       .  S
O757        C763   1.294       .  A
O758       Zr759   2.452       .  S
O758        C762   1.294       .  A
Zr759       O760   2.345       .  S
Zr759       O761   2.337       .  S
Zr759       O769   2.342       .  S
Zr759       O767   2.351       .  S
O760       Zr786   2.347       .  S
O760       Zr789   2.341       .  S
O761       Zr787   2.347       .  S
O761       Zr788   2.346       .  S
C762       C1010   1.481       .  S
C763        C974   1.487       .  S
C764        C994   1.478       .  S
C765        C956   1.485       .  S
H766        O767   0.966       .  S
O767       Zr786   2.359       .  S
O767       Zr788   2.342       .  S
H768        O769   0.966       .  S
O769       Zr787   2.345       .  S
O769       Zr789   2.346       .  S
O770       Zr786   2.468       .  S
O770        C793   1.297       .  A
O771       Zr787   2.436       .  S
O771        C794   1.292       .  A
O772       Zr788   2.457       .  S
O772        C795   1.296       .  A
O773       Zr789   2.434       .  S
O773        C796   1.291       .  A
O774       Zr789   2.439       .  S
O774        C797   1.292       .  A
O775       Zr788   2.435       .  S
O775        C798   1.291       .  A
O776       Zr790   2.446       .  S
O776        C799   1.293       .  A
O777       Zr790   2.429       .  S
O777        C800   1.290       .  A
O778       Zr788   2.443       .  S
O778        C799   1.293       .  A
O779       Zr789   2.462       .  S
O779        C800   1.296       .  A
O780       Zr786   2.452       .  S
O780        C795   1.294       .  A
O781       Zr787   2.469       .  S
O781        C798   1.298       .  A
O782       Zr787   2.458       .  S
O782        C797   1.296       .  A
O783       Zr786   2.464       .  S
O783        C796   1.296       .  A
O784       Zr790   2.443       .  S
O784        C793   1.294       .  A
O785       Zr790   2.463       .  S
O785        C794   1.296       .  A
Zr786       O792   2.350       .  S
Zr786       O804   2.352       .  S
Zr787       O791   2.348       .  S
Zr787       O802   2.348       .  S
Zr788       O792   2.341       .  S
Zr788       O802   2.349       .  S
Zr789       O791   2.345       .  S
Zr789       O804   2.345       .  S
Zr790       O791   2.341       .  S
Zr790       O792   2.346       .  S
Zr790       O804   2.355       .  S
Zr790       O802   2.336       .  S
C793        C938   1.493       .  S
C794        C904   1.487       .  S
C795        C814   1.487       .  S
C796        C848   1.482       .  S
C797        C868   1.483       .  S
C798        C832   1.481       .  S
C799        C884   1.478       .  S
C800        C922   1.479       .  S
H801        O802   0.965       .  S
H803        O804   0.966       .  S
C805        C806   1.403       .  A
C805        C810   1.408       .  A
C805        C813   1.492       .  S
C806        C807   1.401       .  A
C806        H815   1.083       .  S
C807        C808   1.408       .  A
C807        H816   1.082       .  S
C808        C809   1.406       .  A
C808        C811   1.495       .  S
C809        C810   1.405       .  A
C809        H817   1.083       .  S
C810        H818   1.083       .  S
C811        H819   1.084       .  S
C811        C812   1.351       .  D
C812        H820   1.085       .  S
C813        H821   1.087       .  S
C813        C814   1.347       .  D
C814        H822   1.086       .  S
C823        C824   1.403       .  A
C823        C828   1.403       .  A
C823        C831   1.487       .  S
C824        C825   1.407       .  A
C824        H833   1.083       .  S
C825        C826   1.412       .  A
C825        H834   1.080       .  S
C826        C827   1.406       .  A
C826        C829   1.497       .  S
C827        C828   1.397       .  A
C827        H835   1.083       .  S
C828        H836   1.083       .  S
C829        H837   1.086       .  S
C829        C830   1.352       .  D
C830        H838   1.082       .  S
C831        H839   1.086       .  S
C831        C832   1.345       .  D
C832        H840   1.088       .  S
C841        C842   1.404       .  A
C841        C846   1.411       .  A
C841        C849   1.495       .  S
C842        C843   1.396       .  A
C842        H851   1.084       .  S
C843        C844   1.406       .  A
C843        H852   1.083       .  S
C844        C845   1.406       .  A
C844        C847   1.494       .  S
C845        C846   1.408       .  A
C845        H853   1.083       .  S
C846        H854   1.081       .  S
C847        H855   1.086       .  S
C847        C848   1.348       .  D
C848        H856   1.087       .  S
C849        H857   1.086       .  S
C849        C850   1.350       .  D
C850        H858   1.083       .  S
C859        C860   1.406       .  A
C859        C864   1.409       .  A
C859        C867   1.494       .  S
C860        C861   1.404       .  A
C860        H869   1.083       .  S
C861        C862   1.409       .  A
C861        H870   1.082       .  S
C862        C863   1.403       .  A
C862        C865   1.492       .  S
C863        C864   1.399       .  A
C863        H871   1.083       .  S
C864        H872   1.081       .  S
C865        H873   1.087       .  S
C865        C866   1.344       .  D
C866        H874   1.085       .  S
C867        H875   1.087       .  S
C867        C868   1.349       .  D
C868        H876   1.085       .  S
C877        C878   1.403       .  A
C877        C882   1.410       .  A
C877        C885   1.491       .  S
C878        C879   1.392       .  A
C878        H887   1.084       .  S
C879        C880   1.405       .  A
C879        H888   1.082       .  S
C880        C881   1.408       .  A
C880        C883   1.492       .  S
C881        C882   1.409       .  A
C881        H889   1.083       .  S
C882        H890   1.081       .  S
C883        H891   1.086       .  S
C883        C884   1.350       .  D
C884        H892   1.086       .  S
C885        H893   1.085       .  S
C885        C886   1.350       .  D
C886        H894   1.084       .  S
C895        C896   1.404       .  A
C895        C900   1.407       .  A
C895        C903   1.489       .  S
C896        C897   1.400       .  A
C896        H905   1.083       .  S
C897        C898   1.407       .  A
C897        H906   1.083       .  S
C898        C899   1.406       .  A
C898        C901   1.492       .  S
C899        C900   1.405       .  A
C899        H907   1.083       .  S
C900        H908   1.083       .  S
C901        H909   1.082       .  S
C901        C902   1.351       .  D
C902        H910   1.086       .  S
C903        H911   1.087       .  S
C903        C904   1.350       .  D
C904        H912   1.086       .  S
C913        C914   1.403       .  A
C913        C918   1.407       .  A
C913        C921   1.490       .  S
C914        C915   1.404       .  A
C914        H923   1.083       .  S
C915        C916   1.410       .  A
C915        H924   1.080       .  S
C916        C917   1.404       .  A
C916        C919   1.491       .  S
C917        C918   1.397       .  A
C917        H925   1.084       .  S
C918        H926   1.082       .  S
C919        H927   1.086       .  S
C919        C920   1.348       .  D
C920        H928   1.083       .  S
C921        H929   1.086       .  S
C921        C922   1.345       .  D
C922        H930   1.087       .  S
C931        C932   1.405       .  A
C931        C936   1.411       .  A
C931        C939   1.498       .  S
C932        C933   1.397       .  A
C932        H941   1.084       .  S
C933        C934   1.403       .  A
C933        H942   1.084       .  S
C934        C935   1.410       .  A
C934        C937   1.496       .  S
C935        C936   1.411       .  A
C935        H943   1.082       .  S
C936        H944   1.081       .  S
C937        H945   1.087       .  S
C937        C938   1.352       .  D
C938        H946   1.085       .  S
C939        H947   1.086       .  S
C939        C940   1.353       .  D
C940        H948   1.084       .  S
C949        C950   1.405       .  A
C949        C954   1.405       .  A
C949        C957   1.487       .  S
C950        C951   1.402       .  A
C950        H959   1.083       .  S
C951        C952   1.407       .  A
C951        H960   1.082       .  S
C952        C953   1.405       .  A
C952        C955   1.490       .  S
C953        C954   1.401       .  A
C953        H961   1.083       .  S
C954        H962   1.083       .  S
C955        H963   1.087       .  S
C955        C956   1.349       .  D
C956        H964   1.086       .  S
C957        H965   1.080       .  S
C957        C958   1.352       .  D
C958        H966   1.085       .  S
C967        C968   1.406       .  A
C967        C972   1.406       .  A
C967        C975   1.491       .  S
C968        C969   1.404       .  A
C968        H977   1.083       .  S
C969        C970   1.407       .  A
C969        H978   1.082       .  S
C970        C971   1.406       .  A
C970        C973   1.492       .  S
C971        C972   1.403       .  A
C971        H979   1.083       .  S
C972        H980   1.083       .  S
C973        H981   1.087       .  S
C973        C974   1.351       .  D
C974        H982   1.086       .  S
C975        H983   1.079       .  S
C975        C976   1.353       .  D
C976        H984   1.086       .  S
C985        C986   1.403       .  A
C985        C990   1.406       .  A
C985        C993   1.489       .  S
C986        C987   1.404       .  A
C986        H995   1.083       .  S
C987        C988   1.411       .  A
C987        H996   1.080       .  S
C988        C989   1.404       .  A
C988        C991   1.493       .  S
C989        C990   1.396       .  A
C989        H997   1.084       .  S
C990        H998   1.083       .  S
C991        H999   1.086       .  S
C991        C992   1.347       .  D
C992       H1000   1.083       .  S
C993       H1001   1.086       .  S
C993        C994   1.345       .  D
C994       H1002   1.087       .  S
C1003      C1004   1.406       .  A
C1003      C1008   1.408       .  A
C1003      C1011   1.490       .  S
C1004      C1005   1.402       .  A
C1004      H1013   1.083       .  S
C1005      C1006   1.404       .  A
C1005      H1014   1.083       .  S
C1006      C1007   1.403       .  A
C1006      C1009   1.486       .  S
C1007      C1008   1.403       .  A
C1007      H1015   1.083       .  S
C1008      H1016   1.082       .  S
C1009      H1017   1.087       .  S
C1009      C1010   1.345       .  D
C1010      H1018   1.087       .  S
C1011      H1019   1.083       .  S
C1011      C1012   1.352       .  D
C1012      H1020   1.085       .  S
C1021      C1022   1.407       .  A
C1021      C1026   1.406       .  A
C1021      C1029   1.489       .  S
C1022      C1023   1.398       .  A
C1022      H1031   1.083       .  S
C1023      C1024   1.405       .  A
C1023      H1032   1.081       .  S
C1024      C1025   1.407       .  A
C1024      C1027   1.489       .  S
C1025      C1026   1.401       .  A
C1025      H1033   1.083       .  S
C1026      H1034   1.081       .  S
C1027      H1035   1.087       .  S
C1027      C1028   1.354       .  D
C1028      H1036   1.084       .  S
C1029      H1037   1.088       .  S
C1029      C1030   1.351       .  D
C1030      H1038   1.083       .  S
C1039      C1040   1.407       .  A
C1039      C1044   1.408       .  A
C1039      C1047   1.492       .  S
C1040      C1041   1.398       .  A
C1040      H1049   1.083       .  S
C1041      C1042   1.403       .  A
C1041      H1050   1.082       .  S
C1042      C1043   1.405       .  A
C1042      C1045   1.486       .  S
C1043      C1044   1.401       .  A
C1043      H1051   1.083       .  S
C1044      H1052   1.080       .  S
C1045      H1053   1.087       .  S
C1045      C1046   1.353       .  D
C1046      H1054   1.086       .  S
C1047      H1055   1.085       .  S
C1047      C1048   1.351       .  D
C1048      H1056   1.082       .  S
C1057      C1058   1.405       .  A
C1057      C1062   1.409       .  A
C1057      C1065   1.488       .  S
C1058      C1059   1.395       .  A
C1058      H1067   1.084       .  S
C1059      C1060   1.403       .  A
C1059      H1068   1.083       .  S
C1060      C1061   1.404       .  A
C1060      C1063   1.484       .  S
C1061      C1062   1.404       .  A
C1061      H1069   1.083       .  S
C1062      H1070   1.081       .  S
C1063      H1071   1.086       .  S
C1063      C1064   1.347       .  D
C1064      H1072   1.087       .  S
C1065      H1073   1.087       .  S
C1065      C1066   1.350       .  D
C1066      H1074   1.083       .  S
C1075      C1076   1.404       .  A
C1075      C1080   1.407       .  A
C1075      C1083   1.486       .  S
C1076      C1077   1.393       .  A
C1076      H1085   1.084       .  S
C1077      C1078   1.403       .  A
C1077      H1086   1.081       .  S
C1078      C1079   1.407       .  A
C1078      C1081   1.486       .  S
C1079      C1080   1.404       .  A
C1079      H1087   1.083       .  S
C1080      H1088   1.081       .  S
C1081      H1089   1.087       .  S
C1081      C1082   1.353       .  D
C1082      H1090   1.085       .  S
C1083      H1091   1.086       .  S
C1083      C1084   1.348       .  D
C1084      H1092   1.084       .  S
C1093      C1094   1.407       .  A
C1093      C1098   1.407       .  A
C1093      C1101   1.488       .  S
C1094      C1095   1.397       .  A
C1094      H1103   1.083       .  S
C1095      C1096   1.403       .  A
C1095      H1104   1.082       .  S
C1096      C1097   1.405       .  A
C1096      C1099   1.482       .  S
C1097      C1098   1.400       .  A
C1097      H1105   1.083       .  S
C1098      H1106   1.080       .  S
C1099      H1107   1.087       .  S
C1099      C1100   1.352       .  D
C1100      H1108   1.086       .  S
C1101      H1109   1.088       .  S
C1101      C1102   1.350       .  D
C1102      H1110   1.083       .  S
C1111      C1112   1.401       .  A
C1111      C1116   1.408       .  A
C1111      C1119   1.482       .  S
C1112      C1113   1.398       .  A
C1112      H1121   1.083       .  S
C1113      C1114   1.407       .  A
C1113      H1122   1.082       .  S
C1114      C1115   1.402       .  A
C1114      C1117   1.480       .  S
C1115      C1116   1.397       .  A
C1115      H1123   1.083       .  S
C1116      H1124   1.083       .  S
C1117      H1125   1.087       .  S
C1117      C1118   1.343       .  D
C1118      H1126   1.086       .  S
C1119      H1127   1.087       .  S
C1119      C1120   1.341       .  D
C1120      H1128   1.087       .  S
C1129      C1130   1.406       .  A
C1129      C1134   1.406       .  A
C1129      C1137   1.489       .  S
C1130      C1131   1.398       .  A
C1130      H1139   1.084       .  S
C1131      C1132   1.405       .  A
C1131      H1140   1.081       .  S
C1132      C1133   1.407       .  A
C1132      C1135   1.489       .  S
C1133      C1134   1.401       .  A
C1133      H1141   1.083       .  S
C1134      H1142   1.081       .  S
C1135      H1143   1.087       .  S
C1135      C1136   1.354       .  D
C1136      H1144   1.084       .  S
C1137      H1145   1.085       .  S
C1137      C1138   1.350       .  D
C1138      H1146   1.083       .  S
C1147      C1148   1.406       .  A
C1147      C1152   1.406       .  A
C1147      C1155   1.489       .  S
C1148      C1149   1.396       .  A
C1148      H1157   1.084       .  S
C1149      C1150   1.405       .  A
C1149      H1158   1.081       .  S
C1150      C1151   1.408       .  A
C1150      C1153   1.490       .  S
C1151      C1152   1.403       .  A
C1151      H1159   1.083       .  S
C1152      H1160   1.081       .  S
C1153      H1161   1.087       .  S
C1153      C1154   1.353       .  D
C1154      H1162   1.084       .  S
C1155      H1163   1.087       .  S
C1155      C1156   1.351       .  D
C1156      H1164   1.083       .  S
C1165      C1166   1.402       .  A
C1165      C1170   1.407       .  A
C1165      C1173   1.479       .  S
C1166      C1167   1.399       .  A
C1166      H1175   1.083       .  S
C1167      C1168   1.407       .  A
C1167      H1176   1.083       .  S
C1168      C1169   1.400       .  A
C1168      C1171   1.479       .  S
C1169      C1170   1.397       .  A
C1169      H1177   1.083       .  S
C1170      H1178   1.083       .  S
C1171      H1179   1.087       .  S
C1171      C1172   1.340       .  D
C1172      H1180   1.087       .  S
C1173      H1181   1.087       .  S
C1173      C1174   1.344       .  D
C1174      H1182   1.086       .  S
C1183      C1184   1.404       .  A
C1183      C1188   1.406       .  A
C1183      C1191   1.485       .  S
C1184      C1185   1.396       .  A
C1184      H1193   1.084       .  S
C1185      C1186   1.405       .  A
C1185      H1194   1.080       .  S
C1186      C1187   1.407       .  A
C1186      C1189   1.488       .  S
C1187      C1188   1.401       .  A
C1187      H1195   1.083       .  S
C1188      H1196   1.081       .  S
C1189      H1197   1.087       .  S
C1189      C1190   1.353       .  D
C1190      H1198   1.084       .  S
C1191      H1199   1.086       .  S
C1191      C1192   1.348       .  D
C1192      H1200   1.083       .  S
C1201      C1202   1.407       .  A
C1201      C1206   1.401       .  A
C1201      C1209   1.480       .  S
C1202      C1203   1.402       .  A
C1202      H1211   1.082       .  S
C1203      C1204   1.410       .  A
C1203      H1212   1.081       .  S
C1204      C1205   1.400       .  A
C1204      C1207   1.483       .  S
C1205      C1206   1.392       .  A
C1205      H1213   1.084       .  S
C1206      H1214   1.084       .  S
C1207      H1215   1.087       .  S
C1207      C1208   1.343       .  D
C1208      H1216   1.085       .  S
C1209      H1217   1.089       .  S
C1209      C1210   1.343       .  D
C1210      H1218   1.085       .  S
C1219      C1220   1.407       .  A
C1219      C1224   1.407       .  A
C1219      C1227   1.493       .  S
C1220      C1221   1.398       .  A
C1220      H1229   1.083       .  S
C1221      C1222   1.404       .  A
C1221      H1230   1.081       .  S
C1222      C1223   1.409       .  A
C1222      C1225   1.494       .  S
C1223      C1224   1.405       .  A
C1223      H1231   1.083       .  S
C1224      H1232   1.081       .  S
C1225      H1233   1.087       .  S
C1225      C1226   1.357       .  D
C1226      H1234   1.085       .  S
C1227      H1235   1.087       .  S
C1227      C1228   1.354       .  D
C1228      H1236   1.083       .  S
C1237      C1238   1.405       .  A
C1237      C1242   1.412   1_556  A
C1237      C1245   1.496       .  S
C1238      C1239   1.397       .  A
C1238      H1247   1.084       .  S
C1239      C1240   1.406   1_556  A
C1239      H1248   1.083       .  S
C1240      C1241   1.404       .  A
C1240      C1243   1.493       .  S
C1241      C1242   1.407       .  A
C1241      H1249   1.083       .  S
C1242      H1250   1.080       .  S
C1243      H1251   1.086       .  S
C1243      C1244   1.344       .  D
C1244      H1252   1.088       .  S
C1245      H1253   1.086       .  S
C1245      C1246   1.351   1_556  D
C1246      H1254   1.083       .  S
C1255      C1256   1.408       .  A
C1255      C1260   1.403       .  A
C1255      C1263   1.490       .  S
C1256      C1257   1.405       .  A
C1256      H1265   1.083       .  S
C1257      C1258   1.408       .  A
C1257      H1266   1.081       .  S
C1258      C1259   1.406       .  A
C1258      C1261   1.491       .  S
C1259      C1260   1.396       .  A
C1259      H1267   1.083       .  S
C1260      H1268   1.082       .  S
C1261      H1269   1.087       .  S
C1261      C1262   1.350       .  D
C1262      H1270   1.084       .  S
C1263      H1271   1.087       .  S
C1263      C1264   1.355       .  D
C1264      H1272   1.085       .  S
C1273      C1274   1.405       .  A
C1273      C1278   1.408       .  A
C1273      C1281   1.486       .  S
C1274      C1275   1.396       .  A
C1274      H1283   1.084       .  S
C1275      C1276   1.404       .  A
C1275      H1284   1.082       .  S
C1276      C1277   1.404       .  A
C1276      C1279   1.484       .  S
C1277      C1278   1.401       .  A
C1277      H1285   1.083       .  S
C1278      H1286   1.081       .  S
C1279      H1287   1.087       .  S
C1279      C1280   1.350       .  D
C1280      H1288   1.086       .  S
C1281      H1289   1.088       .  S
C1281      C1282   1.348       .  D
C1282      H1290   1.083       .  S
C1291      C1292   1.407       .  A
C1291      C1296   1.405       .  A
C1291      C1299   1.488       .  S
C1292      C1293   1.400       .  A
C1292      H1301   1.083       .  S
C1293      C1294   1.405       .  A
C1293      H1302   1.081       .  S
C1294      C1295   1.406       .  A
C1294      C1297   1.488       .  S
C1295      C1296   1.398       .  A
C1295      H1303   1.083       .  S
C1296      H1304   1.081       .  S
C1297      H1305   1.087       .  S
C1297      C1298   1.354       .  D
C1298      H1306   1.084       .  S
C1299      H1307   1.086       .  S
C1299      C1300   1.351       .  D
C1300      H1308   1.083       .  S
C1309      C1310   1.407       .  A
C1309      C1314   1.404       .  A
C1309      C1317   1.483       .  S
C1310      C1311   1.401       .  A
C1310      H1319   1.081       .  S
C1311      C1312   1.407       .  A
C1311      H1320   1.083       .  S
C1312      C1313   1.404       .  A
C1312      C1315   1.485       .  S
C1313      C1314   1.395       .  A
C1313      H1321   1.081       .  S
C1314      H1322   1.084       .  S
C1315      H1323   1.087       .  S
C1315      C1316   1.354       .  D
C1316      H1324   1.084       .  S
C1317      H1325   1.088       .  S
C1317      C1318   1.346       .  D
C1318      H1326   1.084       .  S
C1327      C1328   1.404       .  A
C1327      C1332   1.408       .  A
C1327      C1335   1.486       .  S
C1328      C1329   1.393       .  A
C1328      H1337   1.084       .  S
C1329      C1330   1.404       .  A
C1329      H1338   1.082       .  S
C1330      C1331   1.404       .  A
C1330      C1333   1.483       .  S
C1331      C1332   1.401       .  A
C1331      H1339   1.083       .  S
C1332      H1340   1.080       .  S
C1333      H1341   1.087       .  S
C1333      C1334   1.348       .  D
C1334      H1342   1.086       .  S
C1335      H1343   1.086       .  S
C1335      C1336   1.347       .  D
C1336      H1344   1.083       .  S
C1345      C1346   1.401       .  A
C1345      C1350   1.408       .  A
C1345      C1353   1.479       .  S
C1346      C1347   1.395       .  A
C1346      H1355   1.083       .  S
C1347      C1348   1.406       .  A
C1347      H1356   1.083       .  S
C1348      C1349   1.402       .  A
C1348      C1351   1.481       .  S
C1349      C1350   1.400       .  A
C1349      H1357   1.083       .  S
C1350      H1358   1.082       .  S
C1351      H1359   1.087       .  S
C1351      C1352   1.341       .  D
C1352      H1360   1.087       .  S
C1353      H1361   1.088       .  S
C1353      C1354   1.343       .  D
C1354      H1362   1.086       .  S
C1363      C1364   1.406       .  A
C1363      C1368   1.408       .  A
C1363      C1371   1.490       .  S
C1364      C1365   1.398       .  A
C1364      H1373   1.083       .  S
C1365      C1366   1.404       .  A
C1365      H1374   1.082       .  S
C1366      C1367   1.405       .  A
C1366      C1369   1.485       .  S
C1367      C1368   1.402       .  A
C1367      H1375   1.083       .  S
C1368      H1376   1.080       .  S
C1369      H1377   1.087       .  S
C1369      C1370   1.352       .  D
C1370      H1378   1.086       .  S
C1371      H1379   1.087       .  S
C1371      C1372   1.351       .  D
C1372      H1380   1.083       .  S
C1381      C1382   1.401       .  A
C1381      C1386   1.408       .  A
C1381      C1389   1.483       .  S
C1382      C1383   1.397       .  A
C1382      H1391   1.083       .  S
C1383      C1384   1.408       .  A
C1383      H1392   1.082       .  S
C1384      C1385   1.404       .  A
C1384      C1387   1.488       .  S
C1385      C1386   1.402       .  A
C1385      H1393   1.083       .  S
C1386      H1394   1.083       .  S
C1387      H1395   1.087       .  S
C1387      C1388   1.343       .  D
C1388      H1396   1.087       .  S
C1389      H1397   1.087       .  S
C1389      C1390   1.345       .  D
C1390      H1398   1.086       .  S
C1399      C1400   1.405       .  A
C1399      C1404   1.405       .  A
C1399      C1407   1.489       .  S
C1400      C1401   1.397       .  A
C1400      H1409   1.084       .  S
C1401      C1402   1.406       .  A
C1401      H1410   1.081       .  S
C1402      C1403   1.409       .  A
C1402      C1405   1.494       .  S
C1403      C1404   1.405       .  A
C1403      H1411   1.083       .  S
C1404      H1412   1.082       .  S
C1405      H1413   1.087       .  S
C1405      C1406   1.355       .  D
C1406      H1414   1.084       .  S
C1407      H1415   1.085       .  S
C1407      C1408   1.352       .  D
C1408      H1416   1.084       .  S
C1417      C1418   1.404       .  A
C1417      C1422   1.404       .  A
C1417      C1425   1.482       .  S
C1418      C1419   1.395       .  A
C1418      H1427   1.084       .  S
C1419      C1420   1.404       .  A
C1419      H1428   1.080       .  S
C1420      C1421   1.410       .  A
C1420      C1423   1.487       .  S
C1421      C1422   1.402       .  A
C1421      H1429   1.083       .  S
C1422      H1430   1.082       .  S
C1423      H1431   1.087       .  S
C1423      C1424   1.356       .  D
C1424      H1432   1.084       .  S
C1425      H1433   1.087       .  S
C1425      C1426   1.347       .  D
C1426      H1434   1.085       .  S
C1435      C1436   1.402       .  A
C1435      C1440   1.409       .  A
C1435      C1443   1.490       .  S
C1436      C1437   1.396       .  A
C1436      H1445   1.084       .  S
C1437      C1438   1.408       .  A
C1437      H1446   1.081       .  S
C1438      C1439   1.406       .  A
C1438      C1441   1.495       .  S
C1439      C1440   1.405       .  A
C1439      H1447   1.083       .  S
C1440      H1448   1.082       .  S
C1441      H1449   1.086       .  S
C1441      C1442   1.348       .  D
C1442      H1450   1.085       .  S
C1443      H1451   1.086       .  S
C1443      C1444   1.346       .  D
C1444      H1452   1.084       .  S
C1453      C1454   1.409       .  A
C1453      C1458   1.406       .  A
C1453      C1461   1.494       .  S
C1454      C1455   1.402       .  A
C1454      H1463   1.083       .  S
C1455      C1456   1.405       .  A
C1455      H1464   1.082       .  S
C1456      C1457   1.405       .  A
C1456      C1459   1.487       .  S
C1457      C1458   1.398       .  A
C1457      H1465   1.084       .  S
C1458      H1466   1.079       .  S
C1459      H1467   1.086   1_565  S
C1459      C1460   1.351   1_565  D
C1460      H1468   1.083   1_545  S
C1461      H1469   1.087       .  S
C1461      C1462   1.355       .  D
C1462      H1470   1.083       .  S
C1471      C1472   1.404       .  A
C1471      C1476   1.409       .  A
C1471      C1479   1.487       .  S
C1472      C1473   1.392       .  A
C1472      H1481   1.083       .  S
C1473      C1474   1.402       .  A
C1473      H1482   1.082       .  S
C1474      C1475   1.406       .  A
C1474      C1477   1.483       .  S
C1475      C1476   1.405       .  A
C1475      H1483   1.083       .  S
C1476      H1484   1.081       .  S
C1477      H1485   1.087       .  S
C1477      C1478   1.352       .  D
C1478      H1486   1.086       .  S
C1479      H1487   1.088       .  S
C1479      C1480   1.348       .  D
C1480      H1488   1.084       .  S
C1489      C1490   1.406       .  A
C1489      C1494   1.405       .  A
C1489      C1497   1.489       .  S
C1490      C1491   1.403       .  A
C1490      H1499   1.083       .  S
C1491      C1492   1.408       .  A
C1491      H1500   1.080       .  S
C1492      C1493   1.406       .  A
C1492      C1495   1.491       .  S
C1493      C1494   1.397       .  A
C1493      H1501   1.084       .  S
C1494      H1502   1.081       .  S
C1495      H1503   1.085       .  S
C1495      C1496   1.352       .  D
C1496      H1504   1.083       .  S
C1497      H1505   1.087       .  S
C1497      C1498   1.352       .  D
C1498      H1506   1.085       .  S
C1507      C1508   1.404       .  A
C1507      C1512   1.406       .  A
C1507      C1515   1.489       .  S
C1508      C1509   1.403       .  A
C1508      H1517   1.083       .  S
C1509      C1510   1.408       .  A
C1509      H1518   1.082       .  S
C1510      C1511   1.403       .  A
C1510      C1513   1.486       .  S
C1511      C1512   1.399       .  A
C1511      H1519   1.083       .  S
C1512      H1520   1.083       .  S
C1513      H1521   1.087       .  S
C1513      C1514   1.348       .  D
C1514      H1522   1.085       .  S
C1515      H1523   1.087       .  S
C1515      C1516   1.345       .  D
C1516      H1524   1.087       .  S
C1525      C1526   1.406       .  A
C1525      C1530   1.404       .  A
C1525      C1533   1.488       .  S
C1526      C1527   1.398       .  A
C1526      H1535   1.084       .  S
C1527      C1528   1.404       .  A
C1527      H1536   1.081       .  S
C1528      C1529   1.409       .  A
C1528      C1531   1.491       .  S
C1529      C1530   1.403       .  A
C1529      H1537   1.083       .  S
C1530      H1538   1.082       .  S
C1531      H1539   1.087       .  S
C1531      C1532   1.356       .  D
C1532      H1540   1.084       .  S
C1533      H1541   1.086       .  S
C1533      C1534   1.351       .  D
C1534      H1542   1.084       .  S
C1543      C1544   1.405       .  A
C1543      C1548   1.408       .  A
C1543      C1551   1.484       .  S
C1544      C1545   1.400       .  A
C1544      H1553   1.083       .  S
C1545      C1546   1.402       .  A
C1545      H1554   1.084       .  S
C1546      C1547   1.404       .  A
C1546      C1549   1.482       .  S
C1547      C1548   1.398       .  A
C1547      H1555   1.083       .  S
C1548      H1556   1.082       .  S
C1549      H1557   1.087       .  S
C1549      C1550   1.348       .  D
C1550      H1558   1.087       .  S
C1551      H1559   1.087       .  S
C1551      C1552   1.347       .  D
C1552      H1560   1.085       .  S
C1561      C1562   1.404   1_655  A
C1561      C1566   1.410       .  A
C1561      C1569   1.497       .  S
C1562      C1563   1.397       .  A
C1562      H1571   1.083       .  S
C1563      C1564   1.407   1_455  A
C1563      H1572   1.082       .  S
C1564      C1565   1.408       .  A
C1564      C1567   1.500       .  S
C1565      C1566   1.411       .  A
C1565      H1573   1.083       .  S
C1566      H1574   1.082       .  S
C1567      H1575   1.086       .  S
C1567      C1568   1.351       .  D
C1568      H1576   1.086       .  S
C1569      H1577   1.086   1_655  S
C1569      C1570   1.351       .  D
C1570      H1578   1.084       .  S
C1579      C1580   1.406       .  A
C1579      C1584   1.404       .  A
C1579      C1587   1.484       .  S
C1580      C1581   1.401       .  A
C1580      H1589   1.083       .  S
C1581      C1582   1.407       .  A
C1581      H1590   1.080       .  S
C1582      C1583   1.406       .  A
C1582      C1585   1.488       .  S
C1583      C1584   1.395       .  A
C1583      H1591   1.084       .  S
C1584      H1592   1.081       .  S
C1585      H1593   1.086       .  S
C1585      C1586   1.350       .  D
C1586      H1594   1.083       .  S
C1587      H1595   1.087       .  S
C1587      C1588   1.351       .  D
C1588      H1596   1.085       .  S
C1597      C1598   1.408       .  A
C1597      C1602   1.404       .  A
C1597      C1605   1.490       .  S
C1598      C1599   1.403       .  A
C1598      H1607   1.083       .  S
C1599      C1600   1.405       .  A
C1599      H1608   1.081       .  S
C1600      C1601   1.407       .  A
C1600      C1603   1.489       .  S
C1601      C1602   1.398       .  A
C1601      H1609   1.084       .  S
C1602      H1610   1.081       .  S
C1603      H1611   1.085       .  S
C1603      C1604   1.353       .  D
C1604      H1612   1.084       .  S
C1605      H1613   1.087       .  S
C1605      C1606   1.356       .  D
C1606      H1614   1.085       .  S
C1615      C1616   1.405       .  A
C1615      C1620   1.404       .  A
C1615      C1623   1.484       .  S
C1616      C1617   1.397       .  A
C1616      H1625   1.084       .  S
C1617      C1618   1.406       .  A
C1617      H1626   1.079       .  S
C1618      C1619   1.407       .  A
C1618      C1621   1.489       .  S
C1619      C1620   1.399       .  A
C1619      H1627   1.083       .  S
C1620      H1628   1.081       .  S
C1621      H1629   1.087       .  S
C1621      C1622   1.352       .  D
C1622      H1630   1.083       .  S
C1623      H1631   1.087       .  S
C1623      C1624   1.351       .  D
C1624      H1632   1.083       .  S
C1633      C1634   1.401       .  A
C1633      C1638   1.407       .  A
C1633      C1641   1.476       .  S
C1634      C1635   1.396       .  A
C1634      H1643   1.083       .  S
C1635      C1636   1.407       .  A
C1635      H1644   1.083       .  S
C1636      C1637   1.399       .  A
C1636      C1639   1.475       .  S
C1637      C1638   1.395       .  A
C1637      H1645   1.084       .  S
C1638      H1646   1.082       .  S
C1639      H1647   1.087       .  S
C1639      C1640   1.339       .  D
C1640      H1648   1.087       .  S
C1641      H1649   1.087       .  S
C1641      C1642   1.342       .  D
C1642      H1650   1.086       .  S
C1651      C1652   1.405       .  A
C1651      C1656   1.406       .  A
C1651      C1659   1.493       .  S
C1652      C1653   1.406       .  A
C1652      H1661   1.083       .  S
C1653      C1654   1.411       .  A
C1653      H1662   1.080       .  S
C1654      C1655   1.405       .  A
C1654      C1657   1.495       .  S
C1655      C1656   1.397       .  A
C1655      H1663   1.083   1_545  S
C1656      H1664   1.082   1_545  S
C1657      H1665   1.086       .  S
C1657      C1658   1.348       .  D
C1658      H1666   1.083       .  S
C1659      H1667   1.086       .  S
C1659      C1660   1.348       .  D
C1660      H1668   1.086       .  S
C1669      C1670   1.408       .  A
C1669      C1674   1.405       .  A
C1669      C1677   1.494       .  S
C1670      C1671   1.405       .  A
C1670      H1679   1.083       .  S
C1671      C1672   1.408       .  A
C1671      H1680   1.081       .  S
C1672      C1673   1.407       .  A
C1672      C1675   1.495       .  S
C1673      C1674   1.399       .  A
C1673      H1681   1.083       .  S
C1674      H1682   1.082       .  S
C1675      H1683   1.087       .  S
C1675      C1676   1.354       .  D
C1676      H1684   1.083       .  S
C1677      H1685   1.087       .  S
C1677      C1678   1.354       .  D
C1678      H1686   1.085       .  S
C1687      C1688   1.407       .  A
C1687      C1692   1.406       .  A
C1687      C1695   1.498       .  S
C1688      C1689   1.405       .  A
C1688      H1697   1.083       .  S
C1689      C1690   1.408       .  A
C1689      H1698   1.081       .  S
C1690      C1691   1.408       .  A
C1690      C1693   1.498       .  S
C1691      C1692   1.404       .  A
C1691      H1699   1.083       .  S
C1692      H1700   1.082       .  S
C1693      H1701   1.086       .  S
C1693      C1694   1.356       .  D
C1694      H1702   1.083       .  S
C1695      H1703   1.087       .  S
C1695      C1696   1.356       .  D
C1696      H1704   1.085       .  S
C1705      C1706   1.405       .  A
C1705      C1710   1.408       .  A
C1705      C1713   1.492       .  S
C1706      C1707   1.402       .  A
C1706      H1715   1.083       .  S
C1707      C1708   1.406       .  A
C1707      H1716   1.083       .  S
C1708      C1709   1.405   1_655  A
C1708      C1711   1.490       .  S
C1709      C1710   1.404   1_455  A
C1709      H1717   1.083       .  S
C1710      H1718   1.082   1_655  S
C1711      H1719   1.081   1_655  S
C1711      C1712   1.351       .  D
C1712      H1720   1.085       .  S
C1713      H1721   1.087       .  S
C1713      C1714   1.349       .  D
C1714      H1722   1.086       .  S
C1723      C1724   1.404       .  A
C1723      C1728   1.408       .  A
C1723      C1731   1.488       .  S
C1724      C1725   1.401       .  A
C1724      H1733   1.083       .  S
C1725      C1726   1.406       .  A
C1725      H1734   1.083       .  S
C1726      C1727   1.402       .  A
C1726      C1729   1.482       .  S
C1727      C1728   1.399       .  A
C1727      H1735   1.083       .  S
C1728      H1736   1.082       .  S
C1729      H1737   1.087       .  S
C1729      C1730   1.345       .  D
C1730      H1738   1.086       .  S
C1731      H1739   1.087       .  S
C1731      C1732   1.343       .  D
C1732      H1740   1.087       .  S
C1741      C1742   1.402       .  A
C1741      C1746   1.409       .  A
C1741      C1749   1.485       .  S
C1742      C1743   1.397       .  A
C1742      H1751   1.083       .  S
C1743      C1744   1.405       .  A
C1743      H1752   1.083       .  S
C1744      C1745   1.402       .  A
C1744      C1747   1.479       .  S
C1745      C1746   1.400       .  A
C1745      H1753   1.083       .  S
C1746      H1754   1.082       .  S
C1747      H1755   1.087       .  S
C1747      C1748   1.344       .  D
C1748      H1756   1.086       .  S
C1749      H1757   1.087       .  S
C1749      C1750   1.343       .  D
C1750      H1758   1.086       .  S
C1759      C1760   1.403       .  A
C1759      C1764   1.408       .  A
C1759      C1767   1.489       .  S
C1760      C1761   1.396       .  A
C1760      H1769   1.084       .  S
C1761      C1762   1.407       .  A
C1761      H1770   1.082       .  S
C1762      C1763   1.404       .  A
C1762      C1765   1.490       .  S
C1763      C1764   1.404       .  A
C1763      H1771   1.083       .  S
C1764      H1772   1.082       .  S
C1765      H1773   1.086       .  S
C1765      C1766   1.346       .  D
C1766      H1774   1.086       .  S
C1767      H1775   1.087       .  S
C1767      C1768   1.347       .  D
C1768      H1776   1.084       .  S
C1777      C1778   1.403       .  A
C1777      C1782   1.405       .  A
C1777      C1785   1.480       .  S
C1778      C1779   1.398       .  A
C1778      H1787   1.084       .  S
C1779      C1780   1.402       .  A
C1779      H1788   1.083       .  S
C1780      C1781   1.407       .  A
C1780      C1783   1.480       .  S
C1781      C1782   1.399       .  A
C1781      H1789   1.083       .  S
C1782      H1790   1.083       .  S
C1783      H1791   1.087       .  S
C1783      C1784   1.344       .  D
C1784      H1792   1.086       .  S
C1785      H1793   1.087       .  S
C1785      C1786   1.347       .  D
C1786      H1794   1.087       .  S
C1795      C1796   1.407       .  A
C1795      C1800   1.406       .  A
C1795      C1803   1.492       .  S
C1796      C1797   1.399       .  A
C1796      H1805   1.084       .  S
C1797      C1798   1.406       .  A
C1797      H1806   1.080       .  S
C1798      C1799   1.409       .  A
C1798      C1801   1.494       .  S
C1799      C1800   1.403       .  A
C1799      H1807   1.083       .  S
C1800      H1808   1.081       .  S
C1801      H1809   1.087       .  S
C1801      C1802   1.356       .  D
C1802      H1810   1.084       .  S
C1803      H1811   1.084       .  S
C1803      C1804   1.353       .  D
C1804      H1812   1.083       .  S
C1813      C1814   1.404   1_655  A
C1813      C1818   1.408       .  A
C1813      C1821   1.495       .  S
C1814      C1815   1.401       .  A
C1814      H1823   1.084       .  S
C1815      C1816   1.406   1_455  A
C1815      H1824   1.083       .  S
C1816      C1817   1.411       .  A
C1816      C1819   1.500   1_655  S
C1817      C1818   1.405       .  A
C1817      H1825   1.080       .  S
C1818      H1826   1.082       .  S
C1819      H1827   1.087       .  S
C1819      C1820   1.350   1_455  D
C1820      H1828   1.082       .  S
C1821      H1829   1.087       .  S
C1821      C1822   1.352       .  D
C1822      H1830   1.085       .  S
C1831      C1832   1.404       .  A
C1831      C1836   1.410       .  A
C1831      C1839   1.486       .  S
C1832      C1833   1.394       .  A
C1832      H1841   1.084       .  S
C1833      C1834   1.403       .  A
C1833      H1842   1.082       .  S
C1834      C1835   1.403       .  A
C1834      C1837   1.480       .  S
C1835      C1836   1.400       .  A
C1835      H1843   1.083       .  S
C1836      H1844   1.080       .  S
C1837      H1845   1.087       .  S
C1837      C1838   1.349       .  D
C1838      H1846   1.086       .  S
C1839      H1847   1.087       .  S
C1839      C1840   1.346       .  D
C1840      H1848   1.083       .  S
C1849      C1850   1.406       .  A
C1849      C1854   1.406       .  A
C1849      C1857   1.488       .  S
C1850      C1851   1.397       .  A
C1850      H1859   1.083       .  S
C1851      C1852   1.404       .  A
C1851      H1860   1.081       .  S
C1852      C1853   1.406       .  A
C1852      C1855   1.485       .  S
C1853      C1854   1.399       .  A
C1853      H1861   1.084       .  S
C1854      H1862   1.080       .  S
C1855      H1863   1.084       .  S
C1855      C1856   1.350       .  D
C1856      H1864   1.083       .  S
C1857      H1865   1.087       .  S
C1857      C1858   1.352       .  D
C1858      H1866   1.084       .  S
C1867      C1868   1.408       .  A
C1867      C1872   1.408       .  A
C1867      C1875   1.494       .  S
C1868      C1869   1.405       .  A
C1868      H1877   1.083       .  S
C1869      C1870   1.406       .  A
C1869      H1878   1.083       .  S
C1870      C1871   1.402       .  A
C1870      C1873   1.486       .  S
C1871      C1872   1.399       .  A
C1871      H1879   1.083   1_655  S
C1872      H1880   1.081   1_655  S
C1873      H1881   1.087       .  S
C1873      C1874   1.347       .  D
C1874      H1882   1.086       .  S
C1875      H1883   1.084       .  S
C1875      C1876   1.353       .  D
C1876      H1884   1.084   1_655  S
C1885      C1886   1.408       .  A
C1885      C1890   1.406       .  A
C1885      C1893   1.493       .  S
C1886      C1887   1.401       .  A
C1886      H1895   1.083       .  S
C1887      C1888   1.405       .  A
C1887      H1896   1.080       .  S
C1888      C1889   1.406       .  A
C1888      C1891   1.489       .  S
C1889      C1890   1.398       .  A
C1889      H1897   1.084       .  S
C1890      H1898   1.080       .  S
C1891      H1899   1.087       .  S
C1891      C1892   1.351       .  D
C1892      H1900   1.083       .  S
C1893      H1901   1.087       .  S
C1893      C1894   1.355       .  D
C1894      H1902   1.083       .  S
C1903      C1904   1.403       .  A
C1903      C1908   1.408       .  A
C1903      C1911   1.481       .  S
C1904      C1905   1.398       .  A
C1904      H1913   1.083       .  S
C1905      C1906   1.405       .  A
C1905      H1914   1.083       .  S
C1906      C1907   1.400       .  A
C1906      C1909   1.477       .  S
C1907      C1908   1.397       .  A
C1907      H1915   1.083       .  S
C1908      H1916   1.082       .  S
C1909      H1917   1.087       .  S
C1909      C1910   1.339       .  D
C1910      H1918   1.087       .  S
C1911      H1919   1.088       .  S
C1911      C1912   1.344       .  D
C1912      H1920   1.086       .  S
C1921      C1922   1.407       .  A
C1921      C1926   1.407       .  A
C1921      C1929   1.494       .  S
C1922      C1923   1.406       .  A
C1922      H1931   1.083       .  S
C1923      C1924   1.409       .  A
C1923      H1932   1.082       .  S
C1924      C1925   1.403       .  A
C1924      C1927   1.489       .  S
C1925      C1926   1.395       .  A
C1925      H1933   1.084       .  S
C1926      H1934   1.081       .  S
C1927      H1935   1.086       .  S
C1927      C1928   1.348       .  D
C1928      H1936   1.085       .  S
C1929      H1937   1.086       .  S
C1929      C1930   1.347       .  D
C1930      H1938   1.086       .  S
C1939      C1940   1.403       .  A
C1939      C1944   1.407       .  A
C1939      C1947   1.481       .  S
C1940      C1941   1.399       .  A
C1940      H1949   1.083       .  S
C1941      C1942   1.407       .  A
C1941      H1950   1.083       .  S
C1942      C1943   1.401       .  A
C1942      C1945   1.481       .  S
C1943      C1944   1.396       .  A
C1943      H1951   1.083       .  S
C1944      H1952   1.082       .  S
C1945      H1953   1.087       .  S
C1945      C1946   1.341       .  D
C1946      H1954   1.086       .  S
C1947      H1955   1.087       .  S
C1947      C1948   1.344       .  D
C1948      H1956   1.086       .  S
C1957      C1958   1.407       .  A
C1957      C1962   1.407       .  A
C1957      C1965   1.492       .  S
C1958      C1959   1.398       .  A
C1958      H1967   1.084       .  S
C1959      C1960   1.405       .  A
C1959      H1968   1.082       .  S
C1960      C1961   1.405       .  A
C1960      C1963   1.488       .  S
C1961      C1962   1.402       .  A
C1961      H1969   1.083       .  S
C1962      H1970   1.080       .  S
C1963      H1971   1.087       .  S
C1963      C1964   1.351       .  D
C1964      H1972   1.085       .  S
C1965      H1973   1.084       .  S
C1965      C1966   1.352       .  D
C1966      H1974   1.083       .  S
C1975      C1976   1.402   1_556  A
C1975      C1980   1.405       .  A
C1975      C1983   1.485       .  S
C1976      C1977   1.404       .  A
C1976      H1985   1.083       .  S
C1977      C1978   1.412   1_554  A
C1977      H1986   1.080       .  S
C1978      C1979   1.404       .  A
C1978      C1981   1.493       .  S
C1979      C1980   1.395       .  A
C1979      H1987   1.083       .  S
C1980      H1988   1.083       .  S
C1981      H1989   1.086       .  S
C1981      C1982   1.347       .  D
C1982      H1990   1.083   1_556  S
C1983      H1991   1.086   1_556  S
C1983      C1984   1.344   1_556  D
C1984      H1992   1.088   1_554  S
C1993      C1994   1.411       .  A
C1993      C1998   1.405       .  A
C1993      C2001   1.496       .  S
C1994      C1995   1.406       .  A
C1994      H2003   1.083       .  S
C1995      C1996   1.406       .  A
C1995      H2004   1.081       .  S
C1996      C1997   1.406       .  A
C1996      C1999   1.491       .  S
C1997      C1998   1.396       .  A
C1997      H2005   1.084       .  S
C1998      H2006   1.080       .  S
C1999      H2007   1.085       .  S
C1999      C2000   1.356       .  D
C2000      H2008   1.083       .  S
C2001      H2009   1.087       .  S
C2001      C2002   1.356       .  D
C2002      H2010   1.083       .  S
C2011      C2012   1.404       .  A
C2011      C2016   1.406       .  A
C2011      C2019   1.485       .  S
C2012      C2013   1.398       .  A
C2012      H2021   1.083       .  S
C2013      C2014   1.400       .  A
C2013      H2022   1.083       .  S
C2014      C2015   1.410       .  A
C2014      C2017   1.485       .  S
C2015      C2016   1.402       .  A
C2015      H2023   1.082       .  S
C2016      H2024   1.082       .  S
C2017      H2025   1.088       .  S
C2017      C2018   1.343       .  D
C2018      H2026   1.086       .  S
C2019      H2027   1.087       .  S
C2019      C2020   1.353       .  D
C2020      H2028   1.085       .  S
C2029      C2030   1.406       .  A
C2029      C2034   1.410   1_556  A
C2029      C2037   1.501       .  S
C2030      C2031   1.400       .  A
C2030      H2039   1.084       .  S
C2031      C2032   1.408   1_556  A
C2031      H2040   1.082       .  S
C2032      C2033   1.408       .  A
C2032      C2035   1.503       .  S
C2033      C2034   1.411       .  A
C2033      H2041   1.083       .  S
C2034      H2042   1.081       .  S
C2035      H2043   1.086       .  S
C2035      C2036   1.351       .  D
C2036      H2044   1.086       .  S
C2037      H2045   1.086       .  S
C2037      C2038   1.356       .  D
C2038      H2046   1.083   1_556  S
C2047      C2048   1.404       .  A
C2047      C2052   1.406       .  A
C2047      C2055   1.483       .  S
C2048      C2049   1.399       .  A
C2048      H2057   1.083       .  S
C2049      C2050   1.404       .  A
C2049      H2058   1.083       .  S
C2050      C2051   1.402       .  A
C2050      C2053   1.476       .  S
C2051      C2052   1.396       .  A
C2051      H2059   1.083       .  S
C2052      H2060   1.082       .  S
C2053      H2061   1.088       .  S
C2053      C2054   1.344       .  D
C2054      H2062   1.086       .  S
C2055      H2063   1.087       .  S
C2055      C2056   1.347       .  D
C2056      H2064   1.085       .  S
C2065      C2066   1.407       .  A
C2065      C2070   1.407       .  A
C2065      C2073   1.489       .  S
C2066      C2067   1.398       .  A
C2066      H2075   1.083       .  S
C2067      C2068   1.403       .  A
C2067      H2076   1.082       .  S
C2068      C2069   1.405       .  A
C2068      C2071   1.483       .  S
C2069      C2070   1.398       .  A
C2069      H2077   1.084       .  S
C2070      H2078   1.080       .  S
C2071      H2079   1.087       .  S
C2071      C2072   1.352       .  D
C2072      H2080   1.085       .  S
C2073      H2081   1.086       .  S
C2073      C2074   1.350       .  D
C2074      H2082   1.083       .  S
C2083      C2084   1.402       .  A
C2083      C2088   1.412   1_556  A
C2083      C2091   1.492       .  S
C2084      C2085   1.393       .  A
C2084      H2093   1.084       .  S
C2085      C2086   1.406       .  A
C2085      H2094   1.082       .  S
C2086      C2087   1.404   1_556  A
C2086      C2089   1.491   1_556  S
C2087      C2088   1.406       .  A
C2087      H2095   1.083       .  S
C2088      H2096   1.080       .  S
C2089      H2097   1.086       .  S
C2089      C2090   1.346       .  D
C2090      H2098   1.086   1_554  S
C2091      H2099   1.086       .  S
C2091      C2092   1.346   1_556  D
C2092      H2100   1.083       .  S
