geometry optimzed in LAMMPS
_audit_creation_date              2020-12-01 
_audit_creation_method            'lammps2cif' 
_symmetry_space_group_name_H-M    'P1' 
_symmetry_Int_Tables_number       1 
_symmetry_cell_setting            triclinic 
loop_ 
_symmetry_equiv_pos_as_xyz 
  x,y,z 
_cell_length_a                    35.70240754 
_cell_length_b                    35.502953050802056 
_cell_length_c                    42.688527715143 
_cell_angle_alpha                 90.22390063588637 
_cell_angle_beta                  90.33261078933815 
_cell_angle_gamma                 119.91206562045262 
loop_ 
_atom_site_label 
_atom_site_type_symbol 
_atom_site_fract_x 
_atom_site_fract_y 
_atom_site_fract_z 
_atom_site_charge 
O1          O  0.89209118  0.72040795  0.34250995    -0.74300
O2          O  0.77257278  0.66459489  0.31908548    -0.74400
O3          O  0.81807686  0.69192565  0.37403230    -0.74400
O4          O  0.84710457  0.69355910  0.28781882    -0.74500
O5          O  0.84129041  0.62833296  0.29295826    -0.74400
O6          O  0.81326256  0.62722370  0.37950554    -0.74400
O7          O  0.76749432  0.59987920  0.32493856    -0.74400
O8          O  0.88762217  0.65592808  0.34778369    -0.74400
Ni9        Ni  0.83259489  0.69487681  0.33068558     1.25400
Ni10       Ni  0.82730105  0.62553509  0.33648965     1.25400
C11         C  0.90946191  0.69751612  0.34969872     0.87800
C12         C  0.75048223  0.62301037  0.31746465     0.87800
C13         C  0.81204580  0.65988915  0.39118060     0.87800
C14         C  0.84754865  0.66061399  0.27598140     0.88000
O15         O  0.21877259  0.89564395  0.43455470    -0.74300
O16         O  0.10013083  0.83059993  0.40839547    -0.74400
O17         O  0.14326534  0.84888274  0.46445320    -0.74400
O18         O  0.17556374  0.87775271  0.37872001    -0.74500
O19         O  0.18054662  0.81801190  0.37316832    -0.74400
O20         O  0.15019416  0.79013839  0.45942997    -0.74400
O21         O  0.10550799  0.77094321  0.40385643    -0.74400
O22         O  0.22438274  0.83636473  0.42847926    -0.74400
Ni23       Ni  0.15915467  0.86528739  0.42173904     1.25400
Ni24       Ni  0.16526867  0.80171031  0.41604221     1.25400
C25         C  0.24101670  0.87641946  0.43638122     0.87800
C26         C  0.08362087  0.79038282  0.40088507     0.87800
C27         C  0.14349965  0.81598392  0.47646486     0.87800
C28         C  0.18233751  0.85213123  0.36153740     0.88000
O29         O  0.43697925  0.00476943  0.48806205    -0.74300
O30         O  0.55646555  0.06358712  0.01137392    -0.74400
O31         O  0.51205485  0.03645134  0.45653346    -0.74400
O32         O  0.48209639  0.03203207  0.04319995    -0.74500
O33         O  0.47915638  0.96810638  0.04758051    -0.74400
O34         O  0.50956696  0.97276155  0.46135125    -0.74400
O35         O  0.55404963  0.00000279  0.01626640    -0.74400
O36         O  0.43471441  0.94120233  0.49245409    -0.74400
Ni37       Ni  0.49692260  0.03643308  0.49963818     1.25400
Ni38       Ni  0.49425780  0.96823399  0.50458632     1.25400
C39         C  0.41633770  0.96324776  0.48558587     0.87800
C40         C  0.57493160  0.04159720  0.01806971     0.87800
C41         C  0.51504187  0.00488738  0.44454979     0.87800
C42         C  0.47714470  0.99998014  0.05993272     0.88000
O43         O  0.10628202  0.34219068  0.15063833    -0.74300
O44         O  0.22476841  0.39762076  0.17720272    -0.74400
O45         O  0.18249110  0.37351698  0.12075624    -0.74400
O46         O  0.14871097  0.36617466  0.20692941    -0.74500
O47         O  0.14412788  0.30144251  0.21039219    -0.74400
O48         O  0.17818512  0.30895254  0.12452976    -0.74400
O49         O  0.22051411  0.33311382  0.18104860    -0.74400
O50         O  0.10224341  0.27775696  0.15424665    -0.74400
Ni51       Ni  0.16573360  0.37218440  0.16372851     1.25400
Ni52       Ni  0.16116383  0.30307572  0.16766169     1.25400
C53         C  0.08480569  0.30076200  0.14757413     0.87800
C54         C  0.24194892  0.37452491  0.18437358     0.87800
C55         C  0.18469228  0.34182633  0.10812450     0.87800
C56         C  0.14176645  0.33294390  0.22309880     0.88000
O57         O  0.76923601  0.17026360  0.07118144    -0.74300
O58         O  0.88846366  0.23233602  0.09593862    -0.74400
O59         O  0.84436046  0.21450583  0.04052739    -0.74400
O60         O  0.81324674  0.18814920  0.12661686    -0.74500
O61         O  0.81708034  0.12763386  0.12190589    -0.74400
O62         O  0.84756407  0.15365167  0.03569904    -0.74400
O63         O  0.89151287  0.17151288  0.09082761    -0.74400
O64         O  0.77239868  0.10935826  0.06675367    -0.74400
Ni65       Ni  0.82866791  0.20347114  0.08373476     1.25400
Ni66       Ni  0.83218479  0.13836131  0.07858795     1.25400
C67         C  0.75133733  0.12971153  0.06437482     0.87800
C68         C  0.90944304  0.21183173  0.09820820     0.87800
C69         C  0.85020700  0.18793528  0.02373142     0.87800
C70         C  0.81163615  0.15442877  0.13876320     0.88000
O71         O  0.43745940  0.50260631  0.23957289    -0.74300
O72         O  0.55716325  0.56126858  0.26313101    -0.74400
O73         O  0.51239249  0.54400992  0.20817295    -0.74400
O74         O  0.48217364  0.51983697  0.29458080    -0.74500
O75         O  0.48335404  0.45779468  0.28988161    -0.74400
O76         O  0.51318035  0.48191642  0.20360269    -0.74400
O77         O  0.55779341  0.49897880  0.25880886    -0.74400
O78         O  0.43794086  0.44034622  0.23508526    -0.74400
Ni79       Ni  0.49723905  0.53412344  0.25150699     1.25400
Ni80       Ni  0.49801405  0.46751104  0.24660974     1.25400
C81         C  0.41805353  0.46196500  0.23287903     0.87800
C82         C  0.57687370  0.53956058  0.26573442     0.87800
C83         C  0.51689569  0.51654934  0.19141888     0.87800
C84         C  0.47968809  0.48571097  0.30665786     0.88000
O85         O  0.10353629  0.33087220  0.43082944    -0.74300
O86         O  0.16701829  0.27512897  0.40527058    -0.74400
O87         O  0.15068187  0.30192234  0.46109663    -0.74400
O88         O  0.11975840  0.30371962  0.37498406    -0.74500
O89         O  0.17872736  0.36858887  0.36948692    -0.74400
O90         O  0.20948614  0.36691464  0.45562668    -0.74400
O91         O  0.22602418  0.33980190  0.39967817    -0.74400
O92         O  0.16269507  0.39535612  0.42492504    -0.74400
Ni93       Ni  0.13314913  0.30059120  0.41825916     1.25400
Ni94       Ni  0.19635135  0.36988528  0.41222732     1.25400
C95         C  0.12302788  0.37245241  0.43283501     0.87800
C96         C  0.20670336  0.29829667  0.39729809     0.87800
C97         C  0.18423454  0.33479806  0.47288899     0.87800
C98         C  0.14471838  0.33610661  0.35784328     0.88000
O99         O  0.33244893  0.10978539  0.31688461    -0.74300
O100        O  0.27271225  0.17018090  0.33983183    -0.74400
O101        O  0.30030197  0.15289528  0.28508839    -0.74400
O102        O  0.30482672  0.12737443  0.37166836    -0.74500
O103        O  0.36775508  0.18892482  0.37697551    -0.74400
O104        O  0.36378766  0.21391140  0.29049586    -0.74400
O105        O  0.33553219  0.23183514  0.34480532    -0.74400
O106        O  0.39538684  0.17100137  0.32260966    -0.74400
Ni107      Ni  0.30033273  0.13787711  0.32817061     1.25400
Ni108      Ni  0.36781969  0.20362802  0.33392887     1.25400
C109        C  0.37379944  0.13058145  0.31520398     0.87800
C110        C  0.29420507  0.21067042  0.34692239     0.87800
C111        C  0.33221535  0.18677658  0.27333255     0.87800
C112        C  0.33654978  0.15455751  0.38877642     0.88000
O113        O  0.94407601  0.50688574  0.01232781    -0.74300
O114        O  0.00062476  0.44389787  0.48925117    -0.74400
O115        O  0.97579472  0.46381776  0.04439533    -0.74400
O116        O  0.96907561  0.48778121  0.45765702    -0.74500
O117        O  0.03258417  0.54881770  0.46190703    -0.74400
O118        O  0.03978659  0.52425179  0.04821737    -0.74400
O119        O  0.06433193  0.50479832  0.49275606    -0.74400
O120        O  0.00763058  0.56776313  0.01704635    -0.74400
Ni121      Ni  0.97018126  0.47341106  0.50081044     1.25400
Ni122      Ni  0.03842399  0.53851169  0.50518439     1.25400
C123        C  0.96634373  0.54741754  0.01903834     0.87800
C124        C  0.04170534  0.46424839  0.48595155     0.87800
C125        C  0.00833368  0.49095190  0.06094328     0.87800
C126        C  0.99994735  0.52203495  0.44536213     0.88000
O127        O  0.70045072  0.88358348  0.12274534    -0.74300
O128        O  0.70400419  0.85428718  0.20871845    -0.74400
O129        O  0.72926194  0.83683951  0.15307815    -0.74400
O130        O  0.67433404  0.90117429  0.17871967    -0.74500
O131        O  0.61012402  0.84164846  0.17216290    -0.74400
O132        O  0.66479610  0.77697789  0.14818737    -0.74400
O133        O  0.63903283  0.79531009  0.20326586    -0.74400
O134        O  0.63625988  0.82368748  0.11696287    -0.74400
Ni135      Ni  0.70428659  0.87116073  0.16603451     1.25400
Ni136      Ni  0.63527639  0.80735413  0.15991895     1.25400
C137        C  0.66852134  0.85745478  0.10532392     0.87800
C138        C  0.67178842  0.82054018  0.22037266     0.87800
C139        C  0.70597892  0.79652421  0.14581024     0.87800
C140        C  0.63296536  0.88160042  0.18039202     0.88000
O141        O  0.83210897  0.60524538  0.07296308    -0.74300
O142        O  0.76849474  0.66121776  0.09712474    -0.74400
O143        O  0.78776079  0.63605610  0.04195513    -0.74400
O144        O  0.81257361  0.62952467  0.12823283    -0.74500
O145        O  0.87214638  0.69431878  0.12544820    -0.74400
O146        O  0.84815789  0.70017910  0.03851056    -0.74400
O147        O  0.82857680  0.72547299  0.09315645    -0.74400
O148        O  0.89230755  0.66973317  0.07059103    -0.74400
Ni149      Ni  0.79807697  0.63071984  0.08523507     1.25400
Ni150      Ni  0.86241129  0.69972533  0.08184166     1.25400
C151        C  0.87246565  0.62844699  0.06693359     0.87800
C152        C  0.78833622  0.70276633  0.09948465     0.87800
C153        C  0.81463151  0.66844517  0.02569158     0.87800
C154        C  0.84576679  0.66116123  0.14137926     0.88000
O155        O  0.51875532  0.03603541  0.20626299    -0.74300
O156        O  0.54720121  0.03541649  0.29308304    -0.74400
O157        O  0.56543052  0.00780614  0.23829660    -0.74400
O158        O  0.50138412  0.06389552  0.26087934    -0.74500
O159        O  0.44197884  0.99948385  0.26650500    -0.74400
O160        O  0.50578362  0.94321528  0.24282536    -0.74400
O161        O  0.48822948  0.97040588  0.29787256    -0.74400
O162        O  0.45922063  0.97157730  0.21177042    -0.74400
Ni163      Ni  0.53534342  0.03806284  0.24942601     1.25400
Ni164      Ni  0.47173943  0.96888547  0.25499945     1.25400
C165        C  0.48478888  0.00344748  0.19458131     0.87800
C166        C  0.52140197  0.00321340  0.31003459     0.87800
C167        C  0.54582498  0.96631791  0.23573568     0.87800
C168        C  0.46140627  0.04110955  0.26807807     0.88000
O169        O  0.33700852  0.11213547  0.09498648    -0.74300
O170        O  0.39503467  0.23176479  0.07164961    -0.74400
O171        O  0.36838917  0.18749361  0.12652414    -0.74400
O172        O  0.36344228  0.15650718  0.04009318    -0.74500
O173        O  0.29966037  0.15320485  0.03532161    -0.74400
O174        O  0.30508345  0.18506112  0.12162477    -0.74400
O175        O  0.33178060  0.22933876  0.06646935    -0.74400
O176        O  0.27357726  0.10944141  0.09042722    -0.74400
Ni177      Ni  0.36819903  0.17207846  0.08349683     1.25400
Ni178      Ni  0.30026785  0.16920660  0.07826471     1.25400
C179        C  0.29582311  0.09132699  0.09756181     0.87800
C180        C  0.37308800  0.24997942  0.06413986     0.87800
C181        C  0.33677890  0.18971675  0.13865076     0.87800
C182        C  0.33123521  0.15092853  0.02324815     0.88000
O183        O  0.56517010  0.56303670  0.48551724    -0.74300
O184        O  0.50061325  0.44246907  0.00750557    -0.74400
O185        O  0.51949595  0.48829396  0.45335995    -0.74400
O186        O  0.54628484  0.51668797  0.03990809    -0.74500
O187        O  0.48727596  0.52262601  0.04492973    -0.74400
O188        O  0.45983372  0.49283275  0.45827692    -0.74400
O189        O  0.44137737  0.44763732  0.01290524    -0.74400
O190        O  0.50546754  0.56755010  0.49027282    -0.74400
Ni191      Ni  0.53491808  0.50249853  0.99639119     1.25400
Ni192      Ni  0.47126889  0.50784632  0.00178677     1.25400
C193        C  0.54539253  0.58473741  0.48301025     0.87800
C194        C  0.46060937  0.42540668  0.01472039     0.87800
C195        C  0.48592366  0.48693563  0.44125132     0.87800
C196        C  0.52028868  0.52266466  0.05691641     0.88000
O197        O  0.15257233  0.85819043  0.21494836    -0.74300
O198        O  0.12392252  0.82593152  0.12851074    -0.74400
O199        O  0.10697231  0.78241294  0.18381220    -0.74400
O200        O  0.16901507  0.90153973  0.15965591    -0.74500
O201        O  0.22896948  0.89766510  0.15436911    -0.74400
O202        O  0.16677214  0.77811909  0.17877080    -0.74400
O203        O  0.18368305  0.82154990  0.12352415    -0.74400
O204        O  0.21229852  0.85367435  0.20977844    -0.74400
Ni205      Ni  0.13602983  0.84219006  0.17193713     1.25400
Ni206      Ni  0.20010497  0.83766636  0.16642572     1.25400
C207        C  0.18623387  0.85947084  0.22689494     0.87800
C208        C  0.14980253  0.81964552  0.11148872     0.87800
C209        C  0.12678483  0.76082066  0.18607211     0.87800
C210        C  0.20876211  0.91895428  0.15191999     0.88000
O211        O  0.97147280  0.52135136  0.29364859    -0.74300
O212        O  0.96876837  0.48904580  0.20748253    -0.74400
O213        O  0.94203163  0.44571181  0.26285975    -0.74400
O214        O  0.99886816  0.56527195  0.23843962    -0.74500
O215        O  0.06253275  0.56905587  0.24505346    -0.74400
O216        O  0.00599194  0.44963426  0.26841180    -0.74400
O217        O  0.03323813  0.49414820  0.21345382    -0.74400
O218        O  0.03541201  0.52528469  0.29971443    -0.74400
Ni219      Ni  0.96798320  0.50520452  0.25035337     1.25400
Ni220      Ni  0.03649954  0.50960314  0.25687965     1.25400
C221        C  0.00337128  0.52741125  0.31107282     0.87800
C222        C  0.00126858  0.48787080  0.19601027     0.87800
C223        C  0.96475063  0.42837254  0.27059760     0.87800
C224        C  0.04026401  0.58670168  0.23707034     0.88000
O225        O  0.82049799  0.18839770  0.37714334    -0.74300
O226        O  0.79448259  0.16010197  0.29040197    -0.74400
O227        O  0.77568300  0.11362681  0.34439286    -0.74400
O228        O  0.83942383  0.23435160  0.32336771    -0.74500
O229        O  0.89920973  0.23002567  0.31842710    -0.74400
O230        O  0.83563405  0.10958013  0.33952368    -0.74400
O231        O  0.85413562  0.15542462  0.28540739    -0.74400
O232        O  0.88026790  0.18385307  0.37257404    -0.74400
Ni233      Ni  0.80539542  0.17423538  0.33399192     1.25400
Ni234      Ni  0.86945343  0.16956768  0.32878567     1.25400
C235        C  0.85405644  0.18990349  0.38937199     0.87800
C236        C  0.82047710  0.15407282  0.27339736     0.87800
C237        C  0.79543684  0.09186477  0.34617317     0.87800
C238        C  0.87968233  0.25198636  0.31686704     0.88000
O239        O  0.73233679  0.89846497  0.40259346    -0.74300
O240        O  0.67596195  0.77937215  0.42764376    -0.74400
O241        O  0.70099164  0.82231428  0.37184044    -0.74400
O242        O  0.70733142  0.85592535  0.45827088    -0.74500
O243        O  0.64342228  0.85222034  0.45338907    -0.74400
O244        O  0.63697437  0.81843045  0.36731806    -0.74400
O245        O  0.61220790  0.77589801  0.42291234    -0.74400
O246        O  0.66868757  0.89513548  0.39764424    -0.74400
Ni247      Ni  0.70641382  0.83912822  0.41525587     1.25400
Ni248      Ni  0.63808117  0.83531174  0.41014582     1.25400
C249        C  0.70995329  0.91624688  0.39514495     0.87800
C250        C  0.63476467  0.75820834  0.43027396     0.87800
C251        C  0.66840535  0.81603841  0.35508004     0.87800
C252        C  0.67577829  0.85836997  0.47032635     0.88000
C253        C  0.77249814  0.04625307  0.35731225    -0.05400
C254        C  0.79684504  0.02671703  0.36598154    -0.32800
C255        C  0.77714706  0.98483556  0.37834814     0.36400
C256        C  0.73193967  0.96125964  0.38264237    -0.05700
C257        C  0.70742807  0.98056243  0.37358381    -0.32700
C258        C  0.72721576  0.02245971  0.36091949     0.36300
H259        H  0.83167098  0.04416419  0.36360699     0.16700
O260        O  0.80278117  0.96772084  0.38653295    -0.60200
H261        H  0.67263844  0.96310684  0.37616486     0.16700
O262        O  0.70186239  0.03974506  0.35237366    -0.60300
H263        H  0.69427894  0.03139297  0.33005213     0.43700
H264        H  0.80628306  0.95465881  0.36696893     0.43700
C265        C  0.90322261  0.29793622  0.30656734    -0.05400
C266        C  0.88312018  0.32321014  0.30919312    -0.32800
C267        C  0.90285376  0.36563752  0.29781738     0.36400
C268        C  0.94331490  0.38362028  0.28300825    -0.05700
C269        C  0.96415817  0.35901059  0.28125086    -0.32700
C270        C  0.94448421  0.31653762  0.29273452     0.36300
H271        H  0.85178938  0.31009074  0.32011379     0.16700
O272        O  0.88240808  0.38934407  0.30171214    -0.60200
H273        H  0.99560023  0.37244621  0.27044468     0.20300
O274        O  0.96582731  0.29354761  0.28995865    -0.60300
H275        H  0.95831078  0.28029156  0.26870820     0.43700
H276        H  0.89382387  0.40528400  0.32180571     0.43700
C277        C  0.10386452  0.71594758  0.19846164    -0.05400
C278        C  0.12803771  0.69672916  0.20822714    -0.32800
C279        C  0.10805988  0.65542983  0.22154639     0.36400
C280        C  0.06268348  0.63185266  0.22503934    -0.05700
C281        C  0.03845629  0.65112298  0.21534175    -0.32700
C282        C  0.05856100  0.69264571  0.20216802     0.36300
H283        H  0.16288308  0.71400168  0.20598301     0.16700
O284        O  0.13343279  0.63835345  0.23054951    -0.60200
H285        H  0.00362492  0.63383950  0.21765091     0.16700
O286        O  0.03344904  0.70997772  0.19307498    -0.60300
H287        H  0.02550809  0.70074929  0.17091365     0.43700
H288        H  0.14238158  0.64859810  0.25243029     0.43700
C289        C  0.56834256  0.62953474  0.47025841    -0.05400
C290        C  0.61363746  0.65214849  0.46815527    -0.32800
C291        C  0.63579719  0.69354400  0.45470692     0.36400
C292        C  0.61268624  0.71331711  0.44298320    -0.05700
C293        C  0.56739274  0.69042878  0.44486710    -0.32700
C294        C  0.54530789  0.64923119  0.45834577     0.36300
H295        H  0.63211124  0.63774555  0.47699221     0.16700
O296        O  0.68006650  0.71457124  0.45384453    -0.60200
H297        H  0.54867174  0.70450839  0.43593996     0.16700
O298        O  0.50082004  0.62821347  0.95887089    -0.60300
H299        H  0.49346453  0.63952293  0.97775442     0.43700
H300        H  0.68702893  0.70428147  0.43426768     0.43700
C301        C  0.23103706  0.96350289  0.13870823    -0.05400
C302        C  0.27481199  0.98290967  0.13047481    -0.32800
C303        C  0.29606383  0.02379170  0.11633759     0.36400
C304        C  0.27372038  0.04654252  0.11031651    -0.05700
C305        C  0.22992465  0.02705225  0.11842859    -0.32700
C306        C  0.20858433  0.98607414  0.13231581     0.36300
H307        H  0.29279302  0.96625392  0.13477306     0.16700
O308        O  0.33881926  0.04119752  0.10884025    -0.60200
H309        H  0.21196777  0.04377900  0.11431692     0.16700
O310        O  0.16576646  0.96870686  0.13964238    -0.60300
H311        H  0.14969510  0.95359148  0.12030823     0.43700
H312        H  0.33877178  0.03073554  0.08724814     0.43700
C313        C  0.39565653  0.29491755  0.05165511    -0.05400
C314        C  0.37387927  0.31862901  0.04967947    -0.32800
C315        C  0.39413593  0.36072068  0.03737747     0.36400
C316        C  0.43701659  0.37995515  0.02634676    -0.05700
C317        C  0.45851007  0.35592116  0.02796877    -0.32700
C318        C  0.43830749  0.31394084  0.04027495     0.36300
H319        H  0.34100602  0.30467977  0.05794677     0.16700
O320        O  0.37182736  0.38274595  0.53644332    -0.60200
H321        H  0.49136320  0.36966904  0.01970801     0.16700
O322        O  0.46067485  0.29180263  0.04075013    -0.60300
H323        H  0.45369470  0.27587958  0.02047082     0.43700
H324        H  0.37641928  0.39687508  0.55730202     0.43700
C325        C  0.66842040  0.80923762  0.32073034    -0.05400
C326        C  0.70802381  0.82638749  0.30500268    -0.32800
C327        C  0.70965494  0.82849543  0.27220377     0.36400
C328        C  0.67118128  0.81227643  0.25445147    -0.05700
C329        C  0.63143819  0.79170241  0.27007924    -0.32700
C330        C  0.62983153  0.79059436  0.30287843     0.36300
H331        H  0.73811407  0.84059372  0.31814970     0.16700
O332        O  0.74905058  0.84679411  0.25775908    -0.60200
H333        H  0.60141406  0.77862842  0.25693461     0.16700
O334        O  0.59034751  0.77169803  0.31722844    -0.60300
H335        H  0.58066461  0.79343032  0.31589722     0.43700
H336        H  0.76129800  0.87864124  0.25996377     0.43700
C337        C  0.67497019  0.86516724  0.00465108    -0.05400
C338        C  0.63490430  0.84792333  0.01974304    -0.32800
C339        C  0.63232291  0.84692702  0.05250155     0.36400
C340        C  0.67027487  0.86446184  0.07095007    -0.05700
C341        C  0.71051304  0.88457836  0.05585353    -0.32700
C342        C  0.71305941  0.88477001  0.02305573     0.36300
H343        H  0.60515171  0.83290842  0.00617131     0.16700
O344        O  0.59244549  0.82830123  0.06624254    -0.60200
H345        H  0.74016069  0.89819026  0.06950598     0.16700
O346        O  0.75292543  0.90287537  0.00935804    -0.60300
H347        H  0.76013706  0.93284928  0.00386717     0.43700
H348        H  0.58103178  0.79651302  0.06486138     0.43700
C349        C  0.72671514  0.77241659  0.13371328    -0.05400
C350        C  0.70718795  0.72739745  0.13834880    -0.32800
C351        C  0.72616303  0.70389446  0.12678773     0.36400
C352        C  0.76536305  0.72546530  0.11021822    -0.05700
C353        C  0.78427833  0.77035788  0.10509518    -0.32700
C354        C  0.76524376  0.79370767  0.11648495     0.36300
H355        H  0.67743772  0.71043245  0.15142926     0.16700
O356        O  0.70712196  0.66036056  0.13310442    -0.60200
H357        H  0.81407751  0.78763690  0.09211141     0.16700
O358        O  0.78436649  0.83727534  0.11021891    -0.60300
H359        H  0.77045671  0.83916045  0.09055991     0.43700
H360        H  0.68445424  0.64578905  0.11672579     0.43700
C361        C  0.61108526  0.90453953  0.19331506    -0.05400
C362        C  0.63455856  0.94245307  0.21158434    -0.32800
C363        C  0.61380703  0.96254949  0.22611507     0.36400
C364        C  0.56879733  0.94482493  0.22255778    -0.05700
C365        C  0.54544940  0.90714411  0.20423481    -0.32700
C366        C  0.56611992  0.88736047  0.18944478     0.36300
H367        H  0.66900477  0.95613606  0.21520209     0.16700
O368        O  0.63776827  0.99911463  0.24406624    -0.60200
H369        H  0.51098710  0.89345612  0.20064634     0.16700
O370        O  0.54184441  0.85126144  0.17113344    -0.60300
H371        H  0.54387215  0.86249305  0.14959706     0.43700
H372        H  0.63651000  0.98836406  0.26566365     0.43700
C373        C  0.99918300  0.52958164  0.41127604    -0.05400
C374        C  0.03826453  0.55614947  0.39576584    -0.32800
C375        C  0.03983116  0.55782621  0.36300249     0.36400
C376        C  0.00180174  0.53351150  0.34518861    -0.05700
C377        C  0.96220178  0.51004551  0.36068521    -0.32700
C378        C  0.96067669  0.50778891  0.39341872     0.36300
H379        H  0.06820554  0.57386470  0.40892853     0.16700
O380        O  0.07873626  0.58297150  0.34858271    -0.60200
H381        H  0.93256437  0.49120861  0.34736554     0.16700
O382        O  0.92156406  0.48267615  0.40754508    -0.60300
H383        H  0.91134367  0.50312254  0.41326495     0.43700
H384        H  0.09381511  0.56590146  0.34957985     0.43700
C385        C  0.00826999  0.48533851  0.09549672    -0.05400
C386        C  0.96917454  0.45756197  0.11068409    -0.32800
C387        C  0.96652029  0.45676466  0.14348268     0.36400
C388        C  0.00360760  0.48286276  0.16177751    -0.05700
C389        C  0.04317204  0.50854373  0.14675458    -0.32700
C390        C  0.04563224  0.51054846  0.11402040     0.36300
H391        H  0.93996131  0.43784714  0.09714815     0.16700
O392        O  0.92756405  0.43032908  0.15742865    -0.60200
H393        H  0.07200230  0.52916171  0.16043991     0.16700
O394        O  0.08466464  0.53788390  0.10049391    -0.60300
H395        H  0.08771056  0.56719470  0.10167449     0.43700
H396        H  0.91141829  0.44631412  0.15609068     0.43700
C397        C  0.94351507  0.57010696  0.02995900    -0.05400
C398        C  0.89861849  0.55016221  0.02527023    -0.32800
C399        C  0.87510939  0.56855105  0.03739774     0.36400
C400        C  0.89639755  0.60772739  0.05460858    -0.05700
C401        C  0.94144332  0.62839158  0.05861606    -0.32700
C402        C  0.96503920  0.61000533  0.04641517     0.36300
H403        H  0.88142164  0.51996505  0.01216768     0.16700
O404        O  0.83162387  0.54886090  0.03111115    -0.60200
H405        H  0.95846294  0.65874439  0.07156100     0.16700
O406        O  0.00875727  0.63048774  0.05185169    -0.60300
H407        H  0.02173211  0.65257120  0.03514746     0.43700
H408        H  0.81782523  0.52515626  0.04663193     0.43700
C409        C  0.33583094  0.14768670  0.42294095    -0.05400
C410        C  0.29588636  0.12547406  0.43819849    -0.32800
C411        C  0.29377509  0.12476412  0.47093971     0.36400
C412        C  0.33208903  0.14536219  0.48899131    -0.05700
C413        C  0.37209232  0.16506379  0.47370609    -0.32700
C414        C  0.37418151  0.16666321  0.44100905     0.36300
H415        H  0.26600678  0.11062386  0.42477074     0.16700
O416        O  0.25411368  0.10418863  0.48503542    -0.60200
H417        H  0.40194894  0.18136554  0.48712641     0.16700
O418        O  0.41387917  0.18825630  0.42705139    -0.60300
H419        H  0.42165534  0.16559581  0.42252729     0.43700
H420        H  0.24308048  0.12483160  0.48364122     0.43700
C421        C  0.33411968  0.19307040  0.23918242    -0.05400
C422        C  0.29626614  0.18111630  0.22191856    -0.32800
C423        C  0.29691685  0.18205911  0.18911692     0.36400
C424        C  0.33597714  0.19496302  0.17305838    -0.05700
C425        C  0.37400134  0.20810918  0.19056356    -0.32700
C426        C  0.37326389  0.20701543  0.22325466     0.36300
H427        H  0.26587017  0.16995017  0.23387794     0.16700
O428        O  0.25882066  0.16847950  0.17311673    -0.60200
H429        H  0.40428662  0.21771745  0.17888197     0.16700
O430        O  0.41058089  0.21717548  0.23932415    -0.60300
H431        H  0.40992376  0.18913456  0.24212210     0.43700
H432        H  0.24581270  0.13653431  0.17085174     0.43700
C433        C  0.39658643  0.10776152  0.30361665    -0.05400
C434        C  0.37243382  0.06459807  0.29264605    -0.32800
C435        C  0.39278211  0.04255050  0.28071837     0.36400
C436        C  0.43826023  0.06358079  0.27939171    -0.05700
C437        C  0.46237537  0.10679194  0.29009925    -0.32700
C438        C  0.44211609  0.12884787  0.30198052     0.36300
H439        H  0.33744896  0.04773800  0.29303580     0.16700
O440        O  0.36776201  0.00095817  0.26950775    -0.60200
H441        H  0.49736625  0.12367535  0.28962534     0.16700
O442        O  0.46741653  0.17085420  0.31231099    -0.60300
H443        H  0.47356214  0.18901162  0.29335924     0.43700
H444        H  0.35915699  0.98219226  0.28829417     0.43700
C445        C  0.10055843  0.39492305  0.44541749    -0.05400
C446        C  0.12185594  0.44057163  0.44486624    -0.32800
C447        C  0.10355167  0.46344516  0.45842715     0.36400
C448        C  0.06285716  0.44083999  0.47289663    -0.05700
C449        C  0.04111202  0.39516356  0.47306948    -0.32700
C450        C  0.05950925  0.37220887  0.45950586     0.36300
H451        H  0.15315906  0.45896686  0.43394068     0.16700
O452        O  0.12520044  0.50803573  0.95615665    -0.60200
H453        H  0.00968489  0.37703018  0.48387211     0.16700
O454        O  0.03749278  0.32770649  0.46099576    -0.60300
H455        H  0.01749564  0.31785325  0.44270485     0.43700
H456        H  0.14664865  0.51862770  0.97357833     0.43700
C457        C  0.22987953  0.27660144  0.38443234    -0.05400
C458        C  0.21038412  0.23113744  0.38590987    -0.32800
C459        C  0.23039792  0.20932650  0.37317779     0.36400
C460        C  0.27111812  0.23288004  0.35877079    -0.05700
C461        C  0.29060392  0.27830620  0.35706969    -0.32700
C462        C  0.27034899  0.30014755  0.36954529     0.36300
H463        H  0.17937588  0.21214264  0.39712313     0.16700
O464        O  0.21057416  0.16505575  0.37623998    -0.60200
H465        H  0.32165679  0.29707403  0.34585933     0.16700
O466        O  0.28990732  0.34434444  0.36612121    -0.60300
H467        H  0.31110706  0.35674355  0.38363843     0.43700
H468        H  0.18949818  0.15305555  0.35862398     0.43700
C469        C  0.47660854  0.48038144  0.34080427    -0.05400
C470        C  0.44762015  0.48793469  0.35795622    -0.32800
C471        C  0.44819473  0.48749311  0.39080524     0.36400
C472        C  0.47908303  0.48071604  0.40688213    -0.05700
C473        C  0.50718477  0.47204525  0.38936789    -0.32700
C474        C  0.50603408  0.47172805  0.35672743     0.36300
H475        H  0.42499520  0.49487693  0.34586737     0.16700
O476        O  0.41997903  0.49598947  0.40677374    -0.60200
H477        H  0.53142290  0.46701681  0.40091752     0.16700
O478        O  0.53647843  0.46680084  0.34060654    -0.60300
H479        H  0.52453032  0.43496075  0.33882640     0.43700
H480        H  0.39371732  0.46724315  0.40959598     0.43700
C481        C  0.52438945  0.52358679  0.15725823    -0.05400
C482        C  0.53637933  0.49747083  0.14005647    -0.32800
C483        C  0.53750137  0.49873873  0.10732839     0.36400
C484        C  0.52649298  0.52643419  0.09115534    -0.05700
C485        C  0.51634460  0.55388431  0.10821488    -0.32700
C486        C  0.51583856  0.55313663  0.14098723     0.36300
H487        H  0.54334577  0.47469492  0.15190643     0.16700
O488        O  0.54673291  0.47075203  0.09136813    -0.60200
H489        H  0.50767133  0.57522080  0.09605383     0.16700
O490        O  0.50415466  0.57944570  0.15663754    -0.60300
H491        H  0.53148183  0.60727146  0.15993008     0.43700
H492        H  0.51838237  0.44419753  0.08759996     0.43700
C493        C  0.85812235  0.19557032  0.48976232    -0.05400
C494        C  0.87945231  0.17725010  0.47364082    -0.32800
C495        C  0.88138493  0.17809135  0.44088188     0.36400
C496        C  0.86079555  0.19653571  0.42363608    -0.05700
C497        C  0.84171376  0.21708600  0.43984583    -0.32700
C498        C  0.84065728  0.21714007  0.47258237     0.36300
H499        H  0.89343430  0.16086887  0.48642584     0.16700
O500        O  0.90028198  0.15755664  0.42603182    -0.60200
H501        H  0.82599763  0.23176414  0.42706485     0.16700
O502        O  0.81913587  0.23507421  0.48730606    -0.60300
H503        H  0.84080496  0.26631692  0.48988492     0.43700
H504        H  0.93127287  0.17984381  0.42446310     0.43700
C505        C  0.80701266  0.14824614  0.17309094    -0.05400
C506        C  0.82564985  0.12631209  0.18812856    -0.32800
C507        C  0.82921208  0.12673617  0.22083174     0.36400
C508        C  0.81273451  0.14814738  0.23917428    -0.05700
C509        C  0.79138693  0.16742589  0.22421405    -0.32700
C510        C  0.78901400  0.16817952  0.19149710     0.36300
H511        H  0.83973509  0.11076781  0.17449155     0.16700
O512        O  0.84896476  0.10623836  0.23458659    -0.60200
H513        H  0.77836593  0.18399487  0.23784951     0.16700
O514        O  0.76933421  0.18878642  0.17778699    -0.60300
H515        H  0.79095352  0.22022037  0.17894751     0.43700
H516        H  0.88040244  0.12667021  0.23253268     0.43700
C517        C  0.13599212  0.33484320  0.32371848    -0.05400
C518        C  0.11767744  0.29495145  0.30754593    -0.32800
C519        C  0.11678139  0.29344363  0.27470603     0.36400
C520        C  0.13403517  0.33228016  0.25735190    -0.05700
C521        C  0.14865769  0.37175334  0.27361256    -0.32700
C522        C  0.15018953  0.37329551  0.30645164     0.36300
H523        H  0.10631753  0.26493806  0.32033810     0.16700
O524        O  0.10074487  0.25394400  0.25991980    -0.60200
H525        H  0.16143576  0.40199336  0.26091354     0.16700
O526        O  0.16611340  0.41265137  0.32145322    -0.60300
H527        H  0.19799258  0.42671046  0.31980985     0.43700
H528        H  0.06965475  0.24372611  0.25632570     0.43700
C529        C  0.19178495  0.33707232  0.00729819    -0.05400
C530        C  0.20931000  0.37738385  0.02288165    -0.32800
C531        C  0.20896663  0.37983288  0.05573037     0.36400
C532        C  0.19187145  0.34159658  0.07375310    -0.05700
C533        C  0.17745025  0.30165173  0.05812425    -0.32700
C534        C  0.17705670  0.29917242  0.02531675     0.36300
H535        H  0.22102242  0.40701103  0.00954564     0.16700
O536        O  0.22496843  0.41974596  0.06989434    -0.60200
H537        H  0.16433398  0.27175764  0.07128852     0.16700
O538        O  0.16075483  0.25925945  0.01112080    -0.60300
H539        H  0.18621733  0.25575875  0.00724665     0.43700
H540        H  0.20168585  0.42713361  0.06783488     0.43700
C541        C  0.95454024  0.23463497  0.11034273    -0.05400
C542        C  0.97610880  0.27983665  0.11532973    -0.32800
C543        C  0.01812627  0.30189576  0.12781793     0.36400
C544        C  0.03963291  0.27879939  0.13550295    -0.05700
C545        C  0.01784774  0.23359459  0.13070794    -0.32700
C546        C  0.97599415  0.21159431  0.11826087     0.36300
H547        H  0.96038517  0.29833729  0.10960285     0.16700
O548        O  0.03783948  0.34605343  0.13199489    -0.60200
H549        H  0.03331501  0.21487046  0.13648402     0.16700
O550        O  0.95610129  0.16730423  0.11481779    -0.60300
H551        H  0.96569617  0.16242440  0.09418143     0.43700
H552        H  0.02870334  0.35021744  0.15302053     0.43700
C553        C  0.37243183  0.43986508  0.22169130    -0.05400
C554        C  0.34772068  0.39426220  0.22176622    -0.32800
C555        C  0.30536874  0.37246746  0.20982487     0.36400
C556        C  0.28684115  0.39623821  0.19716769    -0.05700
C557        C  0.31139900  0.44186119  0.19757069    -0.32700
C558        C  0.35351314  0.46361837  0.20977502     0.36300
H559        H  0.36121515  0.37524357  0.23118022     0.16700
O560        O  0.28217832  0.32799025  0.21143687    -0.60200
H561        H  0.29807526  0.46105485  0.18820897     0.16700
O562        O  0.37636035  0.50814532  0.20873193    -0.60300
H563        H  0.36772208  0.51797982  0.22774984     0.43700
H564        H  0.29080936  0.31751480  0.19275681     0.43700
C565        C  0.52766338  0.00440252  0.34445400    -0.05400
C566        C  0.50758763  0.96520483  0.36105321    -0.32800
C567        C  0.50506008  0.96499111  0.39370719     0.36400
C568        C  0.52285791  0.00452524  0.41056360    -0.05700
C569        C  0.54514678  0.04379214  0.39418475    -0.32700
C570        C  0.54787060  0.04398754  0.36141178     0.36300
H571        H  0.49199750  0.93440423  0.34857684     0.16700
O572        O  0.48284710  0.92584310  0.40867647    -0.60200
H573        H  0.55939615  0.07450500  0.40674304     0.16700
O574        O  0.56838877  0.08308297  0.34622867    -0.60300
H575        H  0.54605358  0.09164811  0.34330389     0.43700
H576        H  0.45253718  0.91964116  0.40963894     0.43700
C577        C  0.47196890  0.00071598  0.09432257    -0.05400
C578        C  0.45462877  0.96170032  0.11113234    -0.32800
C579        C  0.45654339  0.96197093  0.14390034     0.36400
C580        C  0.47623652  0.00180522  0.16051540    -0.05700
C581        C  0.49144712  0.04062468  0.14383818    -0.32700
C582        C  0.48928820  0.04035091  0.11107862     0.36300
H583        H  0.44105376  0.93085688  0.09880136     0.16700
O584        O  0.44124796  0.92321444  0.15926041    -0.60200
H585        H  0.50638908  0.07150812  0.15619967     0.16700
O586        O  0.50641306  0.07926544  0.09573215    -0.60300
H587        H  0.53744463  0.08874202  0.09303464     0.43700
H588        H  0.46601923  0.91796241  0.16037824     0.43700
C589        C  0.70619148  0.10662112  0.05268124    -0.05400
C590        C  0.68910324  0.13054425  0.03861112    -0.32800
C591        C  0.64687100  0.10991483  0.02672208     0.36400
C592        C  0.62058575  0.06435888  0.02887201    -0.05700
C593        C  0.63787595  0.04039404  0.04268977    -0.32700
C594        C  0.68026580  0.06105043  0.05436008     0.36300
H595        H  0.70874757  0.16549652  0.03641168     0.16700
O596        O  0.63215869  0.13462457  0.01234817    -0.60200
H597        H  0.61833755  0.00544127  0.04489493     0.16700
O598        O  0.69537294  0.03647070  0.06840607    -0.60300
H599        H  0.70434312  0.02429881  0.05093078     0.43700
H600        H  0.62289581  0.14681825  0.02963960     0.43700
C601        C  0.19020312  0.86063268  0.32748706    -0.05400
C602        C  0.20815713  0.83970574  0.31035588    -0.32800
C603        C  0.21006948  0.84182567  0.27761063     0.36400
C604        C  0.19307665  0.86451300  0.26125580    -0.05700
C605        C  0.17736630  0.88744789  0.27838783    -0.32700
C606        C  0.17610786  0.88594852  0.31117840     0.36300
H607        H  0.21941662  0.82027405  0.32229016     0.16700
O608        O  0.22506887  0.81835270  0.26180405    -0.60200
H609        H  0.16446049  0.90531690  0.26625834     0.16700
O610        O  0.15895368  0.90758826  0.32682272    -0.60300
H611        H  0.12737839  0.88692876  0.32742179     0.43700
H612        H  0.25681865  0.83772851  0.26084242     0.43700
C613        C  0.13912608  0.81008086  0.01078943    -0.05400
C614        C  0.11519599  0.82465267  0.02781501    -0.32800
C615        C  0.11644117  0.82581116  0.06066019     0.36400
C616        C  0.14215711  0.81239945  0.07716579    -0.05700
C617        C  0.16467277  0.79618345  0.06005704    -0.32700
C618        C  0.16344838  0.79508376  0.02726955     0.36300
H619        H  0.09656907  0.83660817  0.01558678     0.16700
O620        O  0.09400261  0.84209246  0.07620795    -0.60200
H621        H  0.18477633  0.78583278  0.07208168     0.16700
O622        O  0.18839832  0.78184330  0.01161964    -0.60300
H623        H  0.21658469  0.80866772  0.00846154     0.43700
H624        H  0.11418437  0.87386627  0.07781812     0.43700
C625        C  0.28611905  0.89981108  0.44853895    -0.05400
C626        C  0.30934484  0.87750363  0.45032529    -0.32800
C627        C  0.35115776  0.89731646  0.46282627     0.36400
C628        C  0.37113387  0.94066959  0.47373756    -0.05700
C629        C  0.34805965  0.96315276  0.47193058    -0.32700
C630        C  0.30601250  0.94318668  0.45950854     0.36300
H631        H  0.29508461  0.84423241  0.44207248     0.16700
O632        O  0.37259534  0.87425063  0.46320745    -0.60200
H633        H  0.36260345  0.99644835  0.48019251     0.16700
O634        O  0.28458886  0.96625078  0.45880531    -0.60300
H635        H  0.29349730  0.98280340  0.43897007     0.43700
H636        H  0.36300308  0.85674150  0.48260002     0.43700
C637        C  0.80655150  0.66205148  0.42526540    -0.05400
C638        C  0.82795790  0.70262075  0.44051860    -0.32800
C639        C  0.82963587  0.70552341  0.47324595     0.36400
C640        C  0.80862191  0.66748509  0.49132118    -0.05700
C641        C  0.78474288  0.62711064  0.47594879    -0.32700
C642        C  0.78387090  0.62417550  0.44324394     0.36300
H643        H  0.84553022  0.73215437  0.42709401     0.16700
O644        O  0.85230910  0.74566581  0.48727239    -0.60200
H645        H  0.76839072  0.59737376  0.48929835     0.16700
O646        O  0.76190990  0.58400268  0.42918519    -0.60300
H647        H  0.73309303  0.57998471  0.42373368     0.43700
H648        H  0.88307563  0.75337753  0.48629365     0.43700
C649        C  0.85238415  0.65883679  0.24187535    -0.05400
C650        C  0.88126957  0.69646857  0.22572400    -0.32800
C651        C  0.88167221  0.69705642  0.19291716     0.36400
C652        C  0.85192937  0.65981468  0.17570890    -0.05700
C653        C  0.82439978  0.62163511  0.19210405    -0.32700
C654        C  0.82437707  0.62099531  0.22482553     0.36300
H655        H  0.90285502  0.72587518  0.23860635     0.16700
O656        O  0.90949330  0.73500534  0.17812228    -0.60200
H657        H  0.80133292  0.59250274  0.17960767     0.16700
O658        O  0.79480211  0.58401302  0.23987135    -0.60300
H659        H  0.76905481  0.58746459  0.24287381     0.43700
H660        H  0.93643089  0.73381631  0.17529334     0.43700
C661        C  0.62156466  0.56110060  0.27832629    -0.05400
C662        C  0.63461208  0.53746292  0.29737282    -0.32800
C663        C  0.67583121  0.55742829  0.31117149     0.36400
C664        C  0.70537019  0.60165025  0.30543990    -0.05700
C665        C  0.69218963  0.62526061  0.28641585    -0.32700
C666        C  0.65067446  0.60545006  0.27308978     0.36300
H667        H  0.61239377  0.50352367  0.30219032     0.16700
O668        O  0.68665702  0.53339825  0.33039709    -0.60200
H669        H  0.71441005  0.65909752  0.28129964     0.16700
O670        O  0.63957464  0.62924822  0.25384094    -0.60300
H671        H  0.63154860  0.64613171  0.26812439     0.43700
H672        H  0.67920122  0.53824775  0.35181380     0.43700
C673        C  0.95490544  0.72000625  0.36130452    -0.05400
C674        C  0.97976267  0.76543174  0.35873110    -0.32800
C675        C  0.02132065  0.78855866  0.37167438     0.36400
C676        C  0.03924236  0.76644823  0.38758285    -0.05700
C677        C  0.01503577  0.72090706  0.38945815    -0.32700
C678        C  0.97326537  0.69767973  0.37652289     0.36300
H679        H  0.96690568  0.78343756  0.34674503     0.16700
O680        O  0.04473794  0.83268151  0.36751287    -0.60200
H681        H  0.02829379  0.70319647  0.40135960     0.16700
O682        O  0.95026395  0.65342909  0.37999343    -0.60300
H683        H  0.95930953  0.64158356  0.36235837     0.43700
H684        H  0.03459933  0.84519457  0.38399616     0.43700
O685        O  0.89196710  0.72054556  0.84250833    -0.74300
O686        O  0.77244286  0.66468313  0.81913809    -0.74400
O687        O  0.81796197  0.69207863  0.87405285    -0.74400
O688        O  0.84694583  0.69361716  0.78783769    -0.74500
O689        O  0.84116944  0.62841299  0.79301285    -0.74400
O690        O  0.81315398  0.62738225  0.87955919    -0.74400
O691        O  0.76739272  0.59998245  0.82501365    -0.74400
O692        O  0.88752469  0.65608465  0.84782257    -0.74400
Ni693      Ni  0.83246430  0.69498621  0.83070654     1.25400
Ni694      Ni  0.82719704  0.62566096  0.83654758     1.25400
C695        C  0.90935986  0.69767605  0.84970171     0.87800
C696        C  0.75036426  0.62309840  0.81754420     0.87800
C697        C  0.81190353  0.66004171  0.89121055     0.87800
C698        C  0.84741113  0.66067293  0.77601721     0.88000
O699        O  0.21873189  0.89577443  0.93455553    -0.74300
O700        O  0.10011237  0.83080725  0.90832234    -0.74400
O701        O  0.14318691  0.84903902  0.96440647    -0.74400
O702        O  0.17559728  0.87795070  0.87869229    -0.74500
O703        O  0.18055438  0.81819560  0.87314534    -0.74400
O704        O  0.15006608  0.79026651  0.95937989    -0.74400
O705        O  0.10546257  0.77113944  0.90377187    -0.74400
O706        O  0.22430252  0.83647160  0.92848742    -0.74400
Ni707      Ni  0.15912870  0.86546111  0.92170076     1.25400
Ni708      Ni  0.16520427  0.80186327  0.91600404     1.25400
C709        C  0.24094833  0.87652196  0.93640313     0.87800
C710        C  0.08358719  0.79059147  0.90080053     0.87800
C711        C  0.14339198  0.81612470  0.97641667     0.87800
C712        C  0.18238861  0.85233555  0.86151638     0.88000
O713        O  0.43686663  0.00476564  0.98814761    -0.74300
O714        O  0.55653554  0.06356027  0.51141362    -0.74400
O715        O  0.51186865  0.03641100  0.95653731    -0.74400
O716        O  0.48209896  0.03197612  0.54316181    -0.74500
O717        O  0.47915786  0.96804997  0.54753602    -0.74400
O718        O  0.50938833  0.97272429  0.96136108    -0.74400
O719        O  0.55411120  0.99997150  0.51629543    -0.74400
O720        O  0.43460421  0.94119864  0.99254017    -0.74400
Ni721      Ni  0.49682978  0.03644219  0.99966002     1.25400
Ni722      Ni  0.49417180  0.96824602  0.00461451     1.25400
C723        C  0.41622228  0.96324313  0.98568347     0.87800
C724        C  0.57499340  0.04156362  0.51811414     0.87800
C725        C  0.51481809  0.00482707  0.94455086     0.87800
C726        C  0.47711744  0.99990802  0.55988824     0.88000
O727        O  0.10636008  0.34221366  0.65059324    -0.74300
O728        O  0.22481411  0.39758010  0.67720266    -0.74400
O729        O  0.18258932  0.37350793  0.62074184    -0.74400
O730        O  0.14875554  0.36618657  0.70689890    -0.74500
O731        O  0.14415951  0.30145031  0.71037558    -0.74400
O732        O  0.17823504  0.30892226  0.62452319    -0.74400
O733        O  0.22053108  0.33306027  0.68104266    -0.74400
O734        O  0.10229191  0.27776855  0.65422801    -0.74400
Ni735      Ni  0.16580097  0.37218189  0.66370433     1.25400
Ni736      Ni  0.16119742  0.30305857  0.66764954     1.25400
C737        C  0.08487195  0.30078401  0.64754141     0.87800
C738        C  0.24197237  0.37446610  0.68437864     0.87800
C739        C  0.18478069  0.34180803  0.60811744     0.87800
C740        C  0.14180994  0.33296216  0.72307605     0.88000
O741        O  0.76929644  0.17017134  0.57120942    -0.74300
O742        O  0.88850866  0.23228803  0.59596934    -0.74400
O743        O  0.84441821  0.21448841  0.54056178    -0.74400
O744        O  0.81329777  0.18801701  0.62663793    -0.74500
O745        O  0.81717373  0.12752860  0.62188232    -0.74400
O746        O  0.84766886  0.15366412  0.53569437    -0.74400
O747        O  0.89160542  0.17149362  0.59081978    -0.74400
O748        O  0.77249851  0.10929267  0.56673133    -0.74400
Ni749      Ni  0.82871900  0.20339714  0.58376476     1.25400
Ni750      Ni  0.83228418  0.13831753  0.57857157     1.25400
C751        C  0.75141748  0.12962900  0.56437838     0.87800
C752        C  0.90950850  0.21180442  0.59821998     0.87800
C753        C  0.85029733  0.18795273  0.52374943     0.87800
C754        C  0.81170496  0.15429071  0.63875832     0.88000
O755        O  0.43744573  0.50250263  0.73954888    -0.74300
O756        O  0.55710110  0.56122083  0.76312827    -0.74400
O757        O  0.51238898  0.54390267  0.70815407    -0.74400
O758        O  0.48211130  0.51978374  0.79455345    -0.74500
O759        O  0.48332825  0.45775379  0.78989163    -0.74400
O760        O  0.51321846  0.48182706  0.70362262    -0.74400
O761        O  0.55778252  0.49895258  0.75884684    -0.74400
O762        O  0.43795315  0.44025569  0.73508459    -0.74400
Ni763      Ni  0.49720184  0.53404401  0.75148413     1.25400
Ni764      Ni  0.49801798  0.46744733  0.74662685     1.25400
C765        C  0.41804882  0.46185824  0.73288041     0.87800
C766        C  0.57682747  0.53953611  0.76576269     0.87800
C767        C  0.51694385  0.51645450  0.69142299     0.87800
C768        C  0.47963116  0.48566938  0.80664442     0.88000
O769        O  0.10359909  0.33099086  0.93079630    -0.74300
O770        O  0.16699153  0.27514094  0.90526088    -0.74400
O771        O  0.15065835  0.30196051  0.96107951    -0.74400
O772        O  0.11980591  0.30380886  0.87496080    -0.74500
O773        O  0.17880936  0.36865417  0.86946843    -0.74400
O774        O  0.20950322  0.36692576  0.95562417    -0.74400
O775        O  0.22603609  0.33978579  0.89967463    -0.74400
O776        O  0.16279431  0.39544986  0.92490674    -0.74400
Ni777      Ni  0.13316374  0.30065781  0.91823703     1.25400
Ni778      Ni  0.19640709  0.36992297  0.91221662     1.25400
C779        C  0.12312178  0.37257199  0.93281045     0.87800
C780        C  0.20668355  0.29827773  0.89729602     0.87800
C781        C  0.18421411  0.33482010  0.97288234     0.87800
C782        C  0.14478898  0.33618674  0.85782213     0.88000
O783        O  0.33223530  0.10954063  0.81693494    -0.74300
O784        O  0.27257036  0.17000680  0.83991000    -0.74400
O785        O  0.30012263  0.15269100  0.78514712    -0.74400
O786        O  0.30467221  0.12715930  0.87172984    -0.74500
O787        O  0.36760420  0.18870441  0.87701583    -0.74400
O788        O  0.36363465  0.21367858  0.79054459    -0.74400
O789        O  0.33541119  0.23164567  0.84485158    -0.74400
O790        O  0.39519240  0.17073540  0.82265769    -0.74400
Ni791      Ni  0.30015649  0.13766902  0.82823321     1.25400
Ni792      Ni  0.36766328  0.20339959  0.83397449     1.25400
C793        C  0.37358567  0.13031460  0.81525594     0.87800
C794        C  0.29408565  0.21050165  0.84698544     0.87800
C795        C  0.33205625  0.18655121  0.77338430     0.87800
C796        C  0.33641801  0.15433335  0.88882632     0.88000
O797        O  0.94411290  0.50694189  0.51235014    -0.74300
O798        O  0.00070845  0.44400046  0.98917605    -0.74400
O799        O  0.97576160  0.46381548  0.54445457    -0.74400
O800        O  0.96908083  0.48784423  0.95761229    -0.74500
O801        O  0.03255879  0.54891257  0.96188052    -0.74400
O802        O  0.03980319  0.52419217  0.54825300    -0.74400
O803        O  0.06438343  0.50493511  0.99270813    -0.74400
O804        O  0.00772740  0.56776466  0.51707653    -0.74400
Ni805      Ni  0.97020691  0.47343786  0.00075740     1.25400
Ni806      Ni  0.03840306  0.53858547  0.00515023     1.25400
C807        C  0.96644140  0.54747069  0.51905965     0.87800
C808        C  0.04179064  0.46438405  0.98589259     0.87800
C809        C  0.00833305  0.49092008  0.56098984     0.87800
C810        C  0.99992780  0.52213130  0.94533149     0.88000
O811        O  0.70051731  0.88363751  0.62271273    -0.74300
O812        O  0.70411507  0.85437487  0.70868318    -0.74400
O813        O  0.72934891  0.83689666  0.65303081    -0.74400
O814        O  0.67441913  0.90124469  0.67869014    -0.74500
O815        O  0.61021320  0.84171333  0.67213447    -0.74400
O816        O  0.66488386  0.77703020  0.64816407    -0.74400
O817        O  0.63914005  0.79539900  0.70324722    -0.74400
O818        O  0.63632989  0.82373258  0.61693523    -0.74400
Ni819      Ni  0.70437462  0.87122713  0.66599752     1.25400
Ni820      Ni  0.63536589  0.80741603  0.65989535     1.25400
C821        C  0.66858554  0.85750485  0.60529599     0.87800
C822        C  0.67189688  0.82064296  0.72034917     0.87800
C823        C  0.70606573  0.79657531  0.64577187     0.87800
C824        C  0.63304865  0.88166766  0.68036010     0.88000
O825        O  0.83229140  0.60530773  0.57293962    -0.74300
O826        O  0.76863450  0.66124905  0.59712395    -0.74400
O827        O  0.78794912  0.63611112  0.54195195    -0.74400
O828        O  0.81270980  0.62954295  0.62823392    -0.74500
O829        O  0.87223460  0.69438025  0.62548331    -0.74400
O830        O  0.84837045  0.70021705  0.53850795    -0.74400
O831        O  0.82869373  0.72551711  0.59312852    -0.74400
O832        O  0.89250415  0.66981157  0.57066092    -0.74400
Ni833      Ni  0.79823871  0.63076174  0.58522994     1.25400
Ni834      Ni  0.86256418  0.69978224  0.58186174     1.25400
C835        C  0.87265915  0.62853543  0.56694967     0.87800
C836        C  0.78845575  0.70280158  0.59946548     0.87800
C837        C  0.81485570  0.66847174  0.52568394     0.87800
C838        C  0.84586050  0.66120312  0.64140160     0.88000
O839        O  0.51859905  0.03588435  0.70623350    -0.74300
O840        O  0.54696727  0.03523998  0.79307245    -0.74400
O841        O  0.56531083  0.00771084  0.73828932    -0.74400
O842        O  0.50114047  0.06367346  0.76084878    -0.74500
O843        O  0.44175983  0.99923419  0.76644581    -0.74400
O844        O  0.50569607  0.94308575  0.74277673    -0.74400
O845        O  0.48802841  0.97019883  0.79782518    -0.74400
O846        O  0.45909297  0.97139546  0.71171071    -0.74400
Ni847      Ni  0.53515396  0.03790164  0.74940672     1.25400
Ni848      Ni  0.47158250  0.96869077  0.75494320     1.25400
C849        C  0.48465463  0.00328655  0.69453565     0.87800
C850        C  0.52115729  0.00302522  0.81001189     0.87800
C851        C  0.54574359  0.96622683  0.73570870     0.87800
C852        C  0.46116507  0.04085843  0.76804431     0.88000
O853        O  0.33691058  0.11210464  0.59488136    -0.74300
O854        O  0.39511412  0.23179949  0.57174581    -0.74400
O855        O  0.36834818  0.18736893  0.62655449    -0.74400
O856        O  0.36344256  0.15663682  0.54005686    -0.74500
O857        O  0.29971034  0.15344409  0.53531901    -0.74400
O858        O  0.30510200  0.18506633  0.62166674    -0.74400
O859        O  0.33191392  0.22949186  0.56657760    -0.74400
O860        O  0.27352311  0.10951687  0.59036431    -0.74400
Ni861      Ni  0.36818239  0.17207647  0.58349334     1.25400
Ni862      Ni  0.30030691  0.16932917  0.57828689     1.25400
C863        C  0.29572502  0.09133640  0.59744814     0.87800
C864        C  0.37322372  0.25008136  0.56426194     0.87800
C865        C  0.33675589  0.18961764  0.63869260     0.87800
C866        C  0.33126152  0.15115157  0.52321847     0.88000
O867        O  0.56489977  0.56301504  0.98551117    -0.74300
O868        O  0.50086216  0.44248072  0.50750763    -0.74400
O869        O  0.51928730  0.48826918  0.95336734    -0.74400
O870        O  0.54658941  0.51668693  0.53991125    -0.74500
O871        O  0.48760536  0.52266261  0.54496608    -0.74400
O872        O  0.45960349  0.49278053  0.95822317    -0.74400
O873        O  0.44165792  0.44769485  0.51295449    -0.74400
O874        O  0.50518739  0.56751742  0.99021863    -0.74400
Ni875      Ni  0.53517855  0.50251152  0.49638848     1.25400
Ni876      Ni  0.47155220  0.50789105  0.50183534     1.25400
C877        C  0.54512253  0.58471206  0.98297595     0.87800
C878        C  0.46087353  0.42545016  0.51476133     0.87800
C879        C  0.48572546  0.48689318  0.94122726     0.87800
C880        C  0.52061500  0.52267982  0.55693508     0.88000
O881        O  0.15268954  0.85831781  0.71494583    -0.74300
O882        O  0.12399118  0.82587785  0.62853679    -0.74400
O883        O  0.10712356  0.78246952  0.68387770    -0.74400
O884        O  0.16903669  0.90155628  0.65960786    -0.74500
O885        O  0.22902085  0.89773679  0.65432789    -0.74400
O886        O  0.16694540  0.77821810  0.67884673    -0.74400
O887        O  0.18378334  0.82155137  0.62356381    -0.74400
O888        O  0.21244520  0.85385275  0.70978116    -0.74400
Ni889      Ni  0.13611869  0.84222465  0.67194829     1.25400
Ni890      Ni  0.20022508  0.83775770  0.66644686     1.25400
C891        C  0.18637656  0.85965053  0.72689060     0.87800
C892        C  0.14987920  0.81958900  0.61152584     0.87800
C893        C  0.12695306  0.76089427  0.68614449     0.87800
C894        C  0.20877909  0.91899169  0.65185685     0.88000
O895        O  0.97147419  0.52140942  0.79361781    -0.74300
O896        O  0.96882358  0.48900739  0.70748774    -0.74400
O897        O  0.94201291  0.44572312  0.76287265    -0.74400
O898        O  0.99895579  0.56527627  0.73839415    -0.74500
O899        O  0.06259600  0.56902530  0.74506548    -0.74400
O900        O  0.00595147  0.44961051  0.76846930    -0.74400
O901        O  0.03327660  0.49408281  0.71350442    -0.74400
O902        O  0.03538646  0.52529926  0.79973980    -0.74400
Ni903      Ni  0.96801611  0.50521544  0.75033781     1.25400
Ni904      Ni  0.03650723  0.50957477  0.75691996     1.25400
C905        C  0.00335267  0.52747100  0.81106444     0.87800
C906        C  0.00132140  0.48780333  0.69604347     0.87800
C907        C  0.96470549  0.42835887  0.77062353     0.87800
C908        C  0.04035543  0.58668556  0.73704181     0.88000
O909        O  0.82046306  0.18828766  0.87709559    -0.74300
O910        O  0.79451788  0.15992051  0.79036393    -0.74400
O911        O  0.77576753  0.11348493  0.84435783    -0.74400
O912        O  0.83935417  0.23421605  0.82329805    -0.74500
O913        O  0.89919169  0.22998348  0.81836641    -0.74400
O914        O  0.83582008  0.10957848  0.83958567    -0.74400
O915        O  0.85421312  0.15531066  0.78540616    -0.74400
O916        O  0.88032774  0.18390722  0.87255988    -0.74400
Ni917      Ni  0.80539726  0.17409027  0.83394297     1.25400
Ni918      Ni  0.86953251  0.16954662  0.82878018     1.25400
C919        C  0.85405022  0.18987564  0.88934251     0.87800
C920        C  0.82053790  0.15390831  0.77337924     0.87800
C921        C  0.79561535  0.09181989  0.84621114     0.87800
C922        C  0.87961572  0.25189581  0.81679089     0.88000
O923        O  0.73240317  0.89847795  0.90268357    -0.74300
O924        O  0.67586414  0.77931854  0.92760873    -0.74400
O925        O  0.70101604  0.82236958  0.87184445    -0.74400
O926        O  0.70728914  0.85584025  0.95830868    -0.74500
O927        O  0.64341834  0.85221752  0.95340228    -0.74400
O928        O  0.63703252  0.81855678  0.86730617    -0.74400
O929        O  0.61215263  0.77593277  0.92286193    -0.74400
O930        O  0.66878505  0.89521427  0.89770432    -0.74400
Ni931      Ni  0.70639997  0.83910437  0.91527875     1.25400
Ni932      Ni  0.63810772  0.83537298  0.91014640     1.25400
C933        C  0.71005935  0.91631967  0.89527931     0.87800
C934        C  0.63466123  0.75818959  0.93021800     0.87800
C935        C  0.66845854  0.81615214  0.85507217     0.87800
C936        C  0.67574826  0.85831962  0.97035155     0.88000
C937        C  0.77277853  0.04629652  0.85746084    -0.05400
C938        C  0.79728454  0.02765234  0.86776606    -0.32800
C939        C  0.77753091  0.98581627  0.88022278     0.36400
C940        C  0.73209542  0.96138592  0.88288680    -0.05700
C941        C  0.70747177  0.97986699  0.87226761    -0.32700
C942        C  0.72734282  0.02173217  0.85955001     0.36300
H943        H  0.83224099  0.04580970  0.86666019     0.16700
O944        O  0.80329477  0.96965523  0.89022960    -0.60200
H945        H  0.67253892  0.96174292  0.87358025     0.16700
O946        O  0.70191483  0.03817774  0.84934026    -0.60300
H947        H  0.69616403  0.02991079  0.82686847     0.43700
H948        H  0.80909695  0.95733404  0.87119236     0.43700
C949        C  0.90311989  0.29784620  0.80647922    -0.05400
C950        C  0.88298740  0.32309542  0.80908465    -0.32800
C951        C  0.90273363  0.36554656  0.79774451     0.36400
C952        C  0.94323780  0.38357795  0.78299223    -0.05700
C953        C  0.96409097  0.35897769  0.78123559    -0.32700
C954        C  0.94440646  0.31648510  0.79268110     0.36300
H955        H  0.85163151  0.30994330  0.81997091     0.16700
O956        O  0.88226105  0.38922966  0.80162306    -0.60200
H957        H  0.99555632  0.37243965  0.77046245     0.20300
O958        O  0.96577182  0.29351648  0.78990868    -0.60300
H959        H  0.95829951  0.28029588  0.76864608     0.43700
H960        H  0.89363037  0.40514617  0.82173028     0.43700
C961        C  0.10402375  0.71599661  0.69850762    -0.05400
C962        C  0.12815724  0.69664414  0.70807191    -0.32800
C963        C  0.10816275  0.65530690  0.72134096     0.36400
C964        C  0.06280941  0.63183732  0.72500143    -0.05700
C965        C  0.03862350  0.65123069  0.71548811    -0.32700
C966        C  0.05873996  0.69277858  0.70235561     0.36300
H967        H  0.16298356  0.71383043  0.70569660     0.16700
O968        O  0.13348855  0.63807844  0.73011374    -0.60200
H969        H  0.00381064  0.63403142  0.71792342     0.16700
O970        O  0.03365504  0.71022311  0.69345337    -0.60300
H971        H  0.02553855  0.70102607  0.67130556     0.43700
H972        H  0.14269193  0.64832274  0.75196328     0.43700
C973        C  0.56810361  0.62951311  0.97021654    -0.05400
C974        C  0.61338413  0.65199465  0.96795428    -0.32800
C975        C  0.63557689  0.69337497  0.95448681     0.36400
C976        C  0.61252158  0.71328438  0.94291201    -0.05700
C977        C  0.56723915  0.69052973  0.94494960    -0.32700
C978        C  0.54511888  0.64933864  0.95844236     0.36300
H979        H  0.63182597  0.63749403  0.97667241     0.16700
O980        O  0.67983114  0.71424561  0.95344732    -0.60200
H981        H  0.54855602  0.70471571  0.93614210     0.16700
O982        O  0.50100007  0.62796229  0.45861302    -0.60300
H983        H  0.49345306  0.63922978  0.47742583     0.43700
H984        H  0.68658438  0.70393103  0.93379219     0.43700
C985        C  0.23100964  0.96352134  0.63860259    -0.05400
C986        C  0.27463930  0.98273557  0.63000748    -0.32800
C987        C  0.29583527  0.02359495  0.61583828     0.36400
C988        C  0.27359523  0.04653100  0.61015971    -0.05700
C989        C  0.22993608  0.02722949  0.61861287    -0.32700
C990        C  0.20864133  0.98626452  0.63253020     0.36300
H991        H  0.29254504  0.96594005  0.63403616     0.16700
O992        O  0.33843810  0.04079041  0.60795649    -0.60200
H993        H  0.21207246  0.04411223  0.61477194     0.16700
O994        O  0.16597236  0.96910446  0.64023834    -0.60300
H995        H  0.14955686  0.95410069  0.62098537     0.43700
H996        H  0.33798095  0.03036578  0.58628490     0.43700
C997        C  0.39585639  0.29502811  0.55180150    -0.05400
C998        C  0.37413424  0.31879179  0.54984147    -0.32800
C999        C  0.39441808  0.36086397  0.53751181     0.36400
C1000       C  0.43727142  0.38002609  0.52643333    -0.05700
C1001       C  0.45872398  0.35595382  0.52806068    -0.32700
C1002       C  0.43849314  0.31399022  0.54039827     0.36300
H1003       H  0.34127716  0.30489307  0.55813322     0.16700
O1004       O  0.37149647  0.38255227  0.03629290    -0.60200
H1005       H  0.49156070  0.36965494  0.51977469     0.16700
O1006       O  0.46081215  0.29180301  0.54087215    -0.60300
H1007       H  0.45379115  0.27585623  0.52060136     0.43700
H1008       H  0.37602777  0.39664858  0.05715867     0.43700
C1009       C  0.66849458  0.80939062  0.82071741    -0.05400
C1010       C  0.70810509  0.82654456  0.80499835    -0.32800
C1011       C  0.70975065  0.82865305  0.77219857     0.36400
C1012       C  0.67128316  0.81241687  0.75443553    -0.05700
C1013       C  0.63153491  0.79186229  0.77005678    -0.32700
C1014       C  0.62991466  0.79076515  0.80285545     0.36300
H1015       H  0.73818884  0.84074781  0.81815311     0.16700
O1016       O  0.74915412  0.84696698  0.75776422    -0.60200
H1017       H  0.60151601  0.77879045  0.75690575     0.16700
O1018       O  0.59042411  0.77189099  0.81719489    -0.60300
H1019       H  0.58076750  0.79364324  0.81586418     0.43700
H1020       H  0.76137600  0.87881188  0.75995196     0.43700
C1021       C  0.67502344  0.86523068  0.50462798    -0.05400
C1022       C  0.63496952  0.84812040  0.51972524    -0.32800
C1023       C  0.63239460  0.84711827  0.55248555     0.36400
C1024       C  0.67034314  0.86451633  0.57092647    -0.05700
C1025       C  0.71057653  0.88449952  0.55582829    -0.32700
C1026       C  0.71311574  0.88469155  0.52303276     0.36300
H1027       H  0.60521418  0.83321308  0.50615714     0.16700
O1028       O  0.59252943  0.82862956  0.56623620    -0.60200
H1029       H  0.74021934  0.89799732  0.56947866     0.16700
O1030       O  0.75297442  0.90263935  0.50933896    -0.60300
H1031       H  0.76030940  0.93264518  0.50383173     0.43700
H1032       H  0.58100308  0.79682251  0.56485755     0.43700
C1033       C  0.72679997  0.77245740  0.63367008    -0.05400
C1034       C  0.70731621  0.72744984  0.63835527    -0.32800
C1035       C  0.72630050  0.70394536  0.62680359     0.36400
C1036       C  0.76546464  0.72549818  0.61018839    -0.05700
C1037       C  0.78433096  0.77037597  0.60501145    -0.32700
C1038       C  0.76528746  0.79372699  0.61639269     0.36300
H1039       H  0.67759682  0.71049742  0.65147171     0.16700
O1040       O  0.70730954  0.66043166  0.63317804    -0.60200
H1041       H  0.81409973  0.78764223  0.59199187     0.16700
O1042       O  0.78436035  0.83727507  0.61006999    -0.60300
H1043       H  0.77038435  0.83909499  0.59042491     0.43700
H1044       H  0.68463018  0.64579952  0.61681473     0.43700
C1045       C  0.61114796  0.90459572  0.69327406    -0.05400
C1046       C  0.63456876  0.94245648  0.71160631    -0.32800
C1047       C  0.61377100  0.96250841  0.72614008     0.36400
C1048       C  0.56876754  0.94478700  0.72252489    -0.05700
C1049       C  0.54547824  0.90716896  0.70413104    -0.32700
C1050       C  0.56619526  0.88743726  0.68933467     0.36300
H1051       H  0.66900445  0.95612554  0.71527334     0.16700
O1052       O  0.63767769  0.99902237  0.74415264    -0.60200
H1053       H  0.51102637  0.89349229  0.70049199     0.16700
O1054       O  0.54197708  0.85140832  0.67094600    -0.60300
H1055       H  0.54409771  0.86272121  0.64942589     0.43700
H1056       H  0.63642964  0.98820399  0.76572644     0.43700
C1057       C  0.99915030  0.52971900  0.91125423    -0.05400
C1058       C  0.03822922  0.55629491  0.89574438    -0.32800
C1059       C  0.03979488  0.55796448  0.86298167     0.36400
C1060       C  0.00176881  0.53362892  0.84516999    -0.05700
C1061       C  0.96216437  0.51018930  0.86066611    -0.32700
C1062       C  0.96063938  0.50794863  0.89340085     0.36300
H1063       H  0.06817115  0.57401019  0.90890597     0.16700
O1064       O  0.07869747  0.58311256  0.84855941    -0.60200
H1065       H  0.93252634  0.49135234  0.84734700     0.16700
O1066       O  0.92152451  0.48286922  0.90753320    -0.60300
H1067       H  0.91130829  0.50333038  0.91321553     0.43700
H1068       H  0.09379290  0.56605954  0.84957469     0.43700
C1069       C  0.00829968  0.48529702  0.59554037    -0.05400
C1070       C  0.96923538  0.45743905  0.61073315    -0.32800
C1071       C  0.96659864  0.45661725  0.64353185     0.36400
C1072       C  0.00367422  0.48277575  0.66181860    -0.05700
C1073       C  0.04321671  0.50852959  0.64679165    -0.32700
C1074       C  0.04565765  0.51055741  0.61405816     0.36300
H1075       H  0.94002864  0.43767584  0.59720341     0.16700
O1076       O  0.92767001  0.43010505  0.65748712    -0.60200
H1077       H  0.07203479  0.52919439  0.66047424     0.16700
O1078       O  0.08466211  0.53797640  0.60052859    -0.60300
H1079       H  0.08762100  0.56725052  0.60171505     0.43700
H1080       H  0.91145411  0.44602014  0.65616007     0.43700
C1081       C  0.94369590  0.57023591  0.52996315    -0.05400
C1082       C  0.89900619  0.55094020  0.52450951    -0.32800
C1083       C  0.87550160  0.56935223  0.53661783     0.36400
C1084       C  0.89659133  0.60785492  0.55459161    -0.05700
C1085       C  0.94146560  0.62791812  0.55934935    -0.32700
C1086       C  0.96505892  0.60951491  0.54716955     0.36300
H1087       H  0.88199341  0.52125799  0.51081039     0.16700
O1088       O  0.83228025  0.55043608  0.52955995    -0.60200
H1089       H  0.95831477  0.65776378  0.57289124     0.16700
O1090       O  0.00854983  0.62926623  0.55340501    -0.60300
H1091       H  0.02236274  0.65194463  0.53717614     0.43700
H1092       H  0.81768029  0.52610199  0.54451296     0.43700
C1093       C  0.33577249  0.14744358  0.92298834    -0.05400
C1094       C  0.29586198  0.12489958  0.93826044    -0.32800
C1095       C  0.29377391  0.12417091  0.97100452     0.36400
C1096       C  0.33208378  0.14509366  0.98903578    -0.05700
C1097       C  0.37207570  0.16510554  0.97374138    -0.32700
C1098       C  0.37413838  0.16671512  0.94104745     0.36300
H1099       H  0.26597109  0.10979567  0.92484592     0.16700
O1100       O  0.25414109  0.10325826  0.98512579    -0.60200
H1101       H  0.40192435  0.18165362  0.98715372     0.16700
O1102       O  0.41381378  0.18862969  0.92708766    -0.60300
H1103       H  0.42189662  0.16618790  0.92258648     0.43700
H1104       H  0.24279885  0.12364662  0.98373444     0.43700
C1105       C  0.33398751  0.19283206  0.73923113    -0.05400
C1106       C  0.29615673  0.18091019  0.72194857    -0.32800
C1107       C  0.29684430  0.18188505  0.68914753     0.36400
C1108       C  0.33591825  0.19478369  0.67310729    -0.05700
C1109       C  0.37391640  0.20787680  0.69063072    -0.32700
C1110       C  0.37314366  0.20675834  0.72332162     0.36300
H1111       H  0.26575215  0.16975746  0.73389245     0.16700
O1112       O  0.25876980  0.16835148  0.67312870    -0.60200
H1113       H  0.40420943  0.21747828  0.67896307     0.16700
O1114       O  0.41044052  0.21689075  0.73940930    -0.60300
H1115       H  0.40975476  0.18883770  0.74221829     0.43700
H1116       H  0.24575334  0.13640949  0.67083069     0.43700
C1117       C  0.39635452  0.10747461  0.80367091    -0.05400
C1118       C  0.37219261  0.06433267  0.79265525    -0.32800
C1119       C  0.39253501  0.04228779  0.78070651     0.36400
C1120       C  0.43801304  0.06330459  0.77939687    -0.05700
C1121       C  0.46213504  0.10648374  0.79016837    -0.32700
C1122       C  0.44188513  0.12853147  0.80207816     0.36300
H1123       H  0.33720750  0.04749215  0.79302218     0.16700
O1124       O  0.36751242  0.00071685  0.76945781    -0.60200
H1125       H  0.49712662  0.12334905  0.78972348     0.16700
O1126       O  0.46719592  0.17049924  0.81248296    -0.60300
H1127       H  0.47343235  0.18872130  0.79355786     0.43700
H1128       H  0.35890434  0.98191601  0.78822524     0.43700
C1129       C  0.10067391  0.39506409  0.94539617    -0.05400
C1130       C  0.12197044  0.44071418  0.94483159    -0.32800
C1131       C  0.10366242  0.46359434  0.95838349     0.36400
C1132       C  0.06297011  0.44099255  0.97285539    -0.05700
C1133       C  0.04123881  0.39531759  0.97305218    -0.32700
C1134       C  0.05963591  0.37235846  0.95950054     0.36300
H1135       H  0.15326969  0.45910146  0.93389933     0.16700
O1136       O  0.12509987  0.50788823  0.45621240    -0.60200
H1137       H  0.00981817  0.37718577  0.98386445     0.16700
O1138       O  0.03763119  0.32785832  0.96102129    -0.60300
H1139       H  0.01758915  0.31797678  0.94275590     0.43700
H1140       H  0.14655516  0.51846643  0.47362943     0.43700
C1141       C  0.22983379  0.27654258  0.88444703    -0.05400
C1142       C  0.21036737  0.23108746  0.88602467    -0.32800
C1143       C  0.23036116  0.20923978  0.87331699     0.36400
C1144       C  0.27102756  0.23274614  0.85882906    -0.05700
C1145       C  0.29048565  0.27816242  0.85703102    -0.32700
C1146       C  0.27025176  0.30003954  0.86948403     0.36300
H1147       H  0.17940153  0.21213100  0.89730212     0.16700
O1148       O  0.21057990  0.16498667  0.87648498    -0.60200
H1149       H  0.32149643  0.29689255  0.84575719     0.16700
O1150       O  0.28977016  0.34421761  0.86595668    -0.60300
H1151       H  0.31105826  0.35670789  0.88341460     0.43700
H1152       H  0.18942870  0.15289114  0.85891876     0.43700
C1153       C  0.47656099  0.48036845  0.84078411    -0.05400
C1154       C  0.44731380  0.48755827  0.85790763    -0.32800
C1155       C  0.44785102  0.48709963  0.89075711     0.36400
C1156       C  0.47895406  0.48067776  0.90685498    -0.05700
C1157       C  0.50732699  0.47237805  0.88936076    -0.32700
C1158       C  0.50622124  0.47208170  0.85672433     0.36300
H1159       H  0.42450487  0.49421476  0.84579724     0.16700
O1160       O  0.41935153  0.49519930  0.90670588    -0.60200
H1161       H  0.53174010  0.46763576  0.90092130     0.16700
O1162       O  0.53690747  0.46753545  0.84062288    -0.60300
H1163       H  0.52524071  0.43574161  0.83882116     0.43700
H1164       H  0.39328399  0.46630596  0.90953365     0.43700
C1165       C  0.52452757  0.52351275  0.65727101    -0.05400
C1166       C  0.53652365  0.49738408  0.64008840    -0.32800
C1167       C  0.53773969  0.49869567  0.60736041     0.36400
C1168       C  0.52682128  0.52644755  0.59117294    -0.05700
C1169       C  0.51668597  0.55391780  0.60821768    -0.32700
C1170       C  0.51608227  0.55312419  0.64098623     0.36300
H1171       H  0.54341679  0.47456465  0.65194995     0.16700
O1172       O  0.54696104  0.47069338  0.59141171    -0.60200
H1173       H  0.50807836  0.57529550  0.59604455     0.16700
O1174       O  0.50439899  0.57944903  0.65661451    -0.60300
H1175       H  0.53173987  0.60724682  0.65995627     0.43700
H1176       H  0.51860360  0.44415682  0.58762329     0.43700
C1177       C  0.85801256  0.19551489  0.98973872    -0.05400
C1178       C  0.87939577  0.17723984  0.97363194    -0.32800
C1179       C  0.88135543  0.17808870  0.94087265     0.36400
C1180       C  0.86074147  0.19649506  0.92361124    -0.05700
C1181       C  0.84157903  0.21697586  0.93980717    -0.32700
C1182       C  0.84049246  0.21702079  0.97254319     0.36300
H1183       H  0.89340864  0.16089764  0.98642918     0.16700
O1184       O  0.90030861  0.15759967  0.92603593    -0.60200
H1185       H  0.82582795  0.23160901  0.92701490     0.16700
O1186       O  0.81889234  0.23488170  0.98725147    -0.60300
H1187       H  0.84050625  0.26614249  0.98982222     0.43700
H1188       H  0.93128836  0.17992087  0.92446982     0.43700
C1189       C  0.80707363  0.14806764  0.67307885    -0.05400
C1190       C  0.82579612  0.12620893  0.68810856    -0.32800
C1191       C  0.82935982  0.12663019  0.72081188     0.36400
C1192       C  0.81279965  0.14796109  0.73915763    -0.05700
C1193       C  0.79136083  0.16714899  0.72420189    -0.32700
C1194       C  0.78898480  0.16790675  0.69148763     0.36300
H1195       H  0.83994906  0.11073629  0.67446563     0.16700
O1196       O  0.84919807  0.10621463  0.73456249    -0.60200
H1197       H  0.77826987  0.18365120  0.73783864     0.16700
O1198       O  0.76921604  0.18842871  0.67778177    -0.60300
H1199       H  0.79076912  0.21988151  0.67895603     0.43700
H1200       H  0.88062247  0.12670823  0.73251027     0.43700
C1201       C  0.13607060  0.33491136  0.82369673    -0.05400
C1202       C  0.11781690  0.29501720  0.80753412    -0.32800
C1203       C  0.11691103  0.29349180  0.77469658     0.36400
C1204       C  0.13409123  0.33231356  0.75733084    -0.05700
C1205       C  0.14865783  0.37178716  0.77358212    -0.32700
C1206       C  0.15020056  0.37334652  0.80642268     0.36300
H1207       H  0.10651315  0.26501731  0.82033348     0.16700
O1208       O  0.10094413  0.25399115  0.75992431    -0.60200
H1209       H  0.16137983  0.40201564  0.76087485     0.16700
O1210       O  0.16605712  0.41269822  0.82141839    -0.60300
H1211       H  0.19794047  0.42680691  0.81978087     0.43700
H1212       H  0.06984171  0.24371149  0.75632955     0.43700
C1213       C  0.19185022  0.33705279  0.50729851    -0.05400
C1214       C  0.20941668  0.37736823  0.52288166    -0.32800
C1215       C  0.20910119  0.37981934  0.55573087     0.36400
C1216       C  0.19198373  0.34157993  0.57375119    -0.05700
C1217       C  0.17754686  0.30163329  0.55812210    -0.32700
C1218       C  0.17713341  0.29915308  0.52531514     0.36300
H1219       H  0.22113697  0.40699753  0.50954709     0.16700
O1220       O  0.22514714  0.41973616  0.56989798    -0.60200
H1221       H  0.16442581  0.27173840  0.57128575     0.16700
O1222       O  0.16081674  0.25923886  0.51111866    -0.60300
H1223       H  0.18627820  0.25574896  0.50720855     0.43700
H1224       H  0.20189087  0.42716132  0.56784221     0.43700
C1225       C  0.95460030  0.23462285  0.61035126    -0.05400
C1226       C  0.97621841  0.27985082  0.61520989    -0.32800
C1227       C  0.01824420  0.30192928  0.62768078     0.36400
C1228       C  0.03970088  0.27882155  0.63547788    -0.05700
C1229       C  0.01786126  0.23359127  0.63081459    -0.32700
C1230       C  0.97600154  0.21157314  0.61838675     0.36300
H1231       H  0.96053088  0.29835608  0.60938835     0.16700
O1232       O  0.03801776  0.34611306  0.63172273    -0.60200
H1233       H  0.03328567  0.21485714  0.63668657     0.16700
O1234       O  0.95604295  0.16725956  0.61509039    -0.60300
H1235       H  0.96564205  0.16222800  0.59450440     0.43700
H1236       H  0.02891037  0.35041732  0.65271871     0.43700
C1237       C  0.37241724  0.43974622  0.72172607    -0.05400
C1238       C  0.34785712  0.39413146  0.72150013    -0.32800
C1239       C  0.30551252  0.37235011  0.70955353     0.36400
C1240       C  0.28684265  0.39615260  0.69719640    -0.05700
C1241       C  0.31123399  0.44177781  0.69792730    -0.32700
C1242       C  0.35333253  0.46351680  0.71014402     0.36300
H1243       H  0.36146933  0.37508914  0.73066478     0.16700
O1244       O  0.28248550  0.32784330  0.71084091    -0.60200
H1245       H  0.29778765  0.46099572  0.68882523     0.16700
O1246       O  0.37598549  0.50806527  0.70946044    -0.60300
H1247       H  0.36732399  0.51751850  0.72865835     0.43700
H1248       H  0.29114665  0.31770529  0.69199519     0.43700
C1249       C  0.52734817  0.00422404  0.84444290    -0.05400
C1250       C  0.50713983  0.96504183  0.86105913    -0.32800
C1251       C  0.50460400  0.96486305  0.89371226     0.36400
C1252       C  0.52254511  0.00441517  0.91055504    -0.05700
C1253       C  0.54491893  0.04365859  0.89416137    -0.32700
C1254       C  0.54763660  0.04382045  0.86138825     0.36300
H1255       H  0.49146275  0.93423118  0.84859731     0.16700
O1256       O  0.48225342  0.92574052  0.90869563    -0.60200
H1257       H  0.55925769  0.07438286  0.90670991     0.16700
O1258       O  0.56824853  0.08290238  0.84619351    -0.60300
H1259       H  0.54596867  0.09153603  0.84323930     0.43700
H1260       H  0.45199443  0.91969016  0.90967380     0.43700
C1261       C  0.47188128  0.00060760  0.59427450    -0.05400
C1262       C  0.45459591  0.96158398  0.61107061    -0.32800
C1263       C  0.45649456  0.96183440  0.64383843     0.36400
C1264       C  0.47611575  0.00165612  0.66046822    -0.05700
C1265       C  0.49125469  0.04047800  0.64380634    -0.32700
C1266       C  0.48910664  0.04022377  0.61104598     0.36300
H1267       H  0.44108501  0.93075284  0.59872958     0.16700
O1268       O  0.44125982  0.92307533  0.65918438    -0.60200
H1269       H  0.50613053  0.07135023  0.65618077     0.16700
O1270       O  0.50614816  0.07914372  0.59571489    -0.60300
H1271       H  0.53720522  0.08871666  0.59304198     0.43700
H1272       H  0.46606356  0.91787258  0.66028892     0.43700
C1273       C  0.70626934  0.10654013  0.55269100    -0.05400
C1274       C  0.68913707  0.13049236  0.53873156    -0.32800
C1275       C  0.64689781  0.10988294  0.52686285     0.36400
C1276       C  0.62064488  0.06431406  0.52892144    -0.05700
C1277       C  0.63797771  0.04031862  0.54262771    -0.32700
C1278       C  0.68037890  0.06095757  0.55427540     0.36300
H1279       H  0.70875089  0.16545729  0.53660466     0.16700
O1280       O  0.63214700  0.13463156  0.51260013    -0.60200
H1281       H  0.61846908  0.00535265  0.54475504     0.16700
O1282       O  0.69553354  0.03634272  0.56820080    -0.60300
H1283       H  0.70452639  0.02428721  0.55066381     0.43700
H1284       H  0.62286745  0.14672292  0.52994962     0.43700
C1285       C  0.19032438  0.86086353  0.82747367    -0.05400
C1286       C  0.20819921  0.83984982  0.81035511    -0.32800
C1287       C  0.21013121  0.84196156  0.77761183     0.36400
C1288       C  0.19323952  0.86473024  0.76124565    -0.05700
C1289       C  0.17763184  0.88776800  0.77836264    -0.32700
C1290       C  0.17635991  0.88628072  0.81115424     0.36300
H1291       H  0.21936670  0.82034596  0.82229622     0.16700
O1292       O  0.22502789  0.81839043  0.76181636    -0.60200
H1293       H  0.16481211  0.90570515  0.76622045     0.16700
O1294       O  0.15931876  0.90803440  0.82678770    -0.60300
H1295       H  0.12772435  0.88746000  0.82738286     0.43700
H1296       H  0.25679019  0.83768804  0.76085885     0.43700
C1297       C  0.13922385  0.80993777  0.51083542    -0.05400
C1298       C  0.11522725  0.82444516  0.52784398    -0.32800
C1299       C  0.11645530  0.82561515  0.56068809     0.36400
C1300       C  0.14222358  0.81228356  0.57720909    -0.05700
C1301       C  0.16479476  0.79611360  0.56011749    -0.32700
C1302       C  0.16358515  0.79500028  0.52733008     0.36300
H1303       H  0.09656153  0.83634484  0.51560270     0.16700
O1304       O  0.09394865  0.84183316  0.57621922    -0.60200
H1305       H  0.18493469  0.78581876  0.57215481     0.16700
O1306       O  0.18858617  0.78181041  0.51169483    -0.60300
H1307       H  0.21675573  0.80865787  0.50854574     0.43700
H1308       H  0.11407565  0.87361987  0.57781460     0.43700
C1309       C  0.28603111  0.89987585  0.94859931    -0.05400
C1310       C  0.30927240  0.87757866  0.95032202    -0.32800
C1311       C  0.35107311  0.89736200  0.96284511     0.36400
C1312       C  0.37101551  0.94067085  0.97384618    -0.05700
C1313       C  0.34792041  0.96313738  0.97211304    -0.32700
C1314       C  0.30588896  0.94320333  0.95966664     0.36300
H1315       H  0.29503884  0.84434428  0.94199253     0.16700
O1316       O  0.37254131  0.87432511  0.96314595    -0.60200
H1317       H  0.36244000  0.99639883  0.98044634     0.16700
O1318       O  0.28444450  0.96624894  0.95903564    -0.60300
H1319       H  0.29338039  0.98289851  0.93924243     0.43700
H1320       H  0.36293529  0.85672291  0.98249548     0.43700
C1321       C  0.80633113  0.66219150  0.92528150    -0.05400
C1322       C  0.82785000  0.70273159  0.94056094    -0.32800
C1323       C  0.82949479  0.70558604  0.97328832     0.36400
C1324       C  0.80834988  0.66752840  0.99133596    -0.05700
C1325       C  0.78430912  0.62719909  0.97593266    -0.32700
C1326       C  0.78345565  0.62431273  0.94322460     0.36300
H1327       H  0.84554592  0.73226748  0.92715804     0.16700
O1328       O  0.85228466  0.74569882  0.98734179    -0.60200
H1329       H  0.76782118  0.59745159  0.98925764     0.16700
O1330       O  0.76132208  0.58417947  0.92912613    -0.60300
H1331       H  0.73258566  0.58035468  0.92365672     0.43700
H1332       H  0.88302110  0.75330897  0.98634711     0.43700
C1333       C  0.85230295  0.65889952  0.74191287    -0.05400
C1334       C  0.88110635  0.69657719  0.72577042    -0.32800
C1335       C  0.88157326  0.69716418  0.69296526     0.36400
C1336       C  0.85197595  0.65986907  0.67574076    -0.05700
C1337       C  0.82453434  0.62164566  0.69212518    -0.32700
C1338       C  0.82445254  0.62100682  0.72485043     0.36300
H1339       H  0.90257812  0.72602083  0.73865818     0.16700
O1340       O  0.90930157  0.73516048  0.67818429    -0.60200
H1341       H  0.80158293  0.59247143  0.67961435     0.16700
O1342       O  0.79497401  0.58396163  0.73988206    -0.60300
H1343       H  0.76912367  0.58725132  0.74283843     0.43700
H1344       H  0.93631691  0.73410939  0.67538805     0.43700
C1345       C  0.62149200  0.56111203  0.77838412    -0.05400
C1346       C  0.63457636  0.53747082  0.79739043    -0.32800
C1347       C  0.67576989  0.55746827  0.81122149     0.36400
C1348       C  0.70525100  0.60171988  0.80554470    -0.05700
C1349       C  0.69202255  0.62534163  0.78657978    -0.32700
C1350       C  0.65052519  0.60550284  0.77323438     0.36300
H1351       H  0.61240817  0.50350174  0.80215004     0.16700
O1352       O  0.68663066  0.53343796  0.83041816    -0.60200
H1353       H  0.71419340  0.65920946  0.78151961     0.16700
O1354       O  0.63937158  0.62932231  0.75405221    -0.60300
H1355       H  0.63126315  0.64609293  0.76838237     0.43700
H1356       H  0.67909390  0.53818436  0.85183612     0.43700
C1357       C  0.95482399  0.72019944  0.86127249    -0.05400
C1358       C  0.97954346  0.76566249  0.85891666    -0.32800
C1359       C  0.02111375  0.78879616  0.87183900     0.36400
C1360       C  0.03919549  0.76665724  0.88750636    -0.05700
C1361       C  0.01512661  0.72108656  0.88915506    -0.32700
C1362       C  0.97334787  0.69785271  0.87623677     0.36300
H1363       H  0.96656628  0.78369755  0.84712680     0.16700
O1364       O  0.04437294  0.83296909  0.86790189    -0.60200
H1365       H  0.02850219  0.70334653  0.90086035     0.16700
O1366       O  0.95051415  0.65355759  0.87945811    -0.60300
H1367       H  0.95953764  0.64197880  0.86164073     0.43700
H1368       H  0.03418992  0.84523819  0.88453157     0.43700
loop_ 
_geom_bond_atom_site_label_1 
_geom_bond_atom_site_label_2 
_geom_bond_distance 
_geom_bond_site_symmetry_2 
_ccdc_geom_bond_type 
O1           Ni9   1.911       .  S
O1           C11   1.281       .  A
O2           Ni9   1.918       .  S
O2           C12   1.282       .  A
O3           Ni9   1.914       .  S
O3           C13   1.281       .  A
O4           Ni9   1.911       .  S
O4           C14   1.280       .  A
O5          Ni10   1.917       .  S
O5           C14   1.281       .  A
O6          Ni10   1.915       .  S
O6           C13   1.281       .  A
O7          Ni10   1.917       .  S
O7           C12   1.282       .  A
O8          Ni10   1.924       .  S
O8           C11   1.283       .  A
Ni9         Ni10   2.387       .  S
C11         C673   1.487       .  S
C12         C664   1.484       .  S
C13         C637   1.476       .  S
C14         C649   1.472       .  S
O15         Ni23   1.920       .  S
O15          C25   1.282       .  A
O16         Ni23   1.917       .  S
O16          C26   1.282       .  A
O17         Ni23   1.917       .  S
O17          C27   1.281       .  A
O18         Ni23   1.916       .  S
O18          C28   1.281       .  A
O19         Ni24   1.920       .  S
O19          C28   1.283       .  A
O20         Ni24   1.920       .  S
O20          C27   1.282       .  A
O21         Ni24   1.917       .  S
O21          C26   1.281       .  A
O22         Ni24   1.908       .  S
O22          C25   1.281       .  A
Ni23        Ni24   2.385       .  S
C25         C625   1.485       .  S
C26         C676   1.483       .  S
C27        C1297   1.481       .  S
C28         C601   1.485       .  S
O29         Ni37   1.916       .  S
O29          C39   1.281   1_545  A
O30        Ni721   1.910   1_554  S
O30          C40   1.280       .  A
O31         Ni37   1.921       .  S
O31          C41   1.282       .  A
O32        Ni721   1.920   1_554  S
O32          C42   1.282   1_545  A
O33        Ni722   1.913       .  S
O33          C42   1.281       .  A
O34         Ni38   1.912       .  S
O34          C41   1.280   1_565  A
O35        Ni722   1.915   1_545  S
O35          C40   1.282       .  A
O36         Ni38   1.912       .  S
O36          C39   1.281       .  A
Ni37        O714   1.910       .  S
Ni37        O716   1.920       .  S
Ni37        Ni38   2.386   1_545  S
Ni38        O717   1.913       .  S
Ni38        O719   1.915       .  S
C39         C628   1.483       .  S
C40         C592   1.482       .  S
C41         C568   1.480       .  S
C42         C577   1.482   1_565  S
O43         Ni51   1.918       .  S
O43          C53   1.281       .  A
O44         Ni51   1.916       .  S
O44          C54   1.282       .  A
O45         Ni51   1.926       .  S
O45          C55   1.283       .  A
O46         Ni51   1.924       .  S
O46          C56   1.283       .  A
O47         Ni52   1.918       .  S
O47          C56   1.281       .  A
O48         Ni52   1.922       .  S
O48          C55   1.282       .  A
O49         Ni52   1.919       .  S
O49          C54   1.282       .  A
O50         Ni52   1.912       .  S
O50          C53   1.282       .  A
Ni51        Ni52   2.383       .  S
C53         C544   1.486       .  S
C54         C556   1.489       .  S
C55         C532   1.492       .  S
C56         C520   1.488       .  S
O57         Ni65   1.915       .  S
O57          C67   1.282       .  A
O58         Ni65   1.918       .  S
O58          C68   1.282       .  A
O59         Ni65   1.915       .  S
O59          C69   1.281       .  A
O60         Ni65   1.916       .  S
O60          C70   1.281       .  A
O61         Ni66   1.915       .  S
O61          C70   1.281       .  A
O62         Ni66   1.916       .  S
O62          C69   1.282       .  A
O63         Ni66   1.908       .  S
O63          C68   1.280       .  A
O64         Ni66   1.914       .  S
O64          C67   1.280       .  A
Ni65        Ni66   2.386       .  S
C67         C589   1.479       .  S
C68         C541   1.484       .  S
C69        C1177   1.479   1_554  S
C70         C505   1.481       .  S
O71         Ni79   1.915       .  S
O71          C81   1.281       .  A
O72         Ni79   1.918       .  S
O72          C82   1.281       .  A
O73         Ni79   1.914       .  S
O73          C83   1.281       .  A
O74         Ni79   1.917       .  S
O74          C84   1.281       .  A
O75         Ni80   1.908       .  S
O75          C84   1.280       .  A
O76         Ni80   1.915       .  S
O76          C83   1.282       .  A
O77         Ni80   1.918       .  S
O77          C82   1.282       .  A
O78         Ni80   1.922       .  S
O78          C81   1.283       .  A
Ni79        Ni80   2.387       .  S
C81         C553   1.487       .  S
C82         C661   1.480       .  S
C83         C481   1.484       .  S
C84         C469   1.468       .  S
O85         Ni93   1.923       .  S
O85          C95   1.282       .  A
O86         Ni93   1.919       .  S
O86          C96   1.283       .  A
O87         Ni93   1.922       .  S
O87          C97   1.282       .  A
O88         Ni93   1.923       .  S
O88          C98   1.282       .  A
O89         Ni94   1.919       .  S
O89          C98   1.282       .  A
O90         Ni94   1.925       .  S
O90          C97   1.283       .  A
O91         Ni94   1.918       .  S
O91          C96   1.281       .  A
O92         Ni94   1.909       .  S
O92          C95   1.281       .  A
Ni93        Ni94   2.384       .  S
C95         C445   1.486       .  S
C96         C457   1.489       .  S
C97        C1213   1.487       .  S
C98         C517   1.484       .  S
O99        Ni107   1.920       .  S
O99         C109   1.282       .  A
O100       Ni107   1.914       .  S
O100        C110   1.281       .  A
O101       Ni107   1.917       .  S
O101        C111   1.281       .  A
O102       Ni107   1.917       .  S
O102        C112   1.282       .  A
O103       Ni108   1.912       .  S
O103        C112   1.280       .  A
O104       Ni108   1.910       .  S
O104        C111   1.280       .  A
O105       Ni108   1.924       .  S
O105        C110   1.283       .  A
O106       Ni108   1.919       .  S
O106        C109   1.282       .  A
Ni107      Ni108   2.386       .  S
C109        C433   1.491       .  S
C110        C460   1.486       .  S
C111        C421   1.473       .  S
C112        C409   1.478       .  S
O113       Ni805   1.905       .  S
O113        C123   1.280       .  A
O114       Ni121   1.913   1_455  S
O114        C124   1.280       .  A
O115       Ni805   1.922       .  S
O115        C125   1.283   1_655  A
O116       Ni121   1.919       .  S
O116        C126   1.282       .  A
O117       Ni122   1.915       .  S
O117        C126   1.281   1_455  A
O118       Ni806   1.916       .  S
O118        C125   1.281       .  A
O119       Ni122   1.917       .  S
O119        C124   1.282       .  A
O120       Ni806   1.917       .  S
O120        C123   1.281   1_455  A
Ni121       O797   1.906       .  S
Ni121       O799   1.922       .  S
Ni121      Ni122   2.385   1_655  S
Ni122       O802   1.916       .  S
Ni122       O804   1.917       .  S
C123        C397   1.479       .  S
C124        C448   1.483       .  S
C125        C385   1.489       .  S
C126        C373   1.483       .  S
O127       Ni135   1.921       .  S
O127        C137   1.282       .  A
O128       Ni135   1.919       .  S
O128        C138   1.282       .  A
O129       Ni135   1.916       .  S
O129        C139   1.282       .  A
O130       Ni135   1.926       .  S
O130        C140   1.284       .  A
O131       Ni136   1.911       .  S
O131        C140   1.280       .  A
O132       Ni136   1.913       .  S
O132        C139   1.280       .  A
O133       Ni136   1.920       .  S
O133        C138   1.282       .  A
O134       Ni136   1.921       .  S
O134        C137   1.283       .  A
Ni135      Ni136   2.386       .  S
C137        C340   1.486       .  S
C138        C328   1.483       .  S
C139        C349   1.477       .  S
C140        C361   1.488       .  S
O141       Ni149   1.915       .  S
O141        C151   1.282       .  A
O142       Ni149   1.920       .  S
O142        C152   1.282       .  A
O143       Ni149   1.910       .  S
O143        C153   1.280       .  A
O144       Ni149   1.911       .  S
O144        C154   1.281       .  A
O145       Ni150   1.920       .  S
O145        C154   1.282       .  A
O146       Ni150   1.918       .  S
O146        C153   1.282       .  A
O147       Ni150   1.906       .  S
O147        C152   1.280       .  A
O148       Ni150   1.908       .  S
O148        C151   1.279       .  A
Ni149      Ni150   2.386       .  S
C151        C400   1.475       .  S
C152        C352   1.481       .  S
C153       C1324   1.480   1_554  S
C154        C652   1.485       .  S
O155       Ni163   1.922       .  S
O155        C165   1.283       .  A
O156       Ni163   1.922       .  S
O156        C166   1.282       .  A
O157       Ni163   1.920       .  S
O157        C167   1.281   1_545  A
O158       Ni163   1.914       .  S
O158        C168   1.281       .  A
O159       Ni164   1.924       .  S
O159        C168   1.283   1_565  A
O160       Ni164   1.920       .  S
O160        C167   1.283       .  A
O161       Ni164   1.912       .  S
O161        C166   1.281   1_565  A
O162       Ni164   1.910       .  S
O162        C165   1.279   1_565  A
Ni163      Ni164   2.386   1_545  S
C165        C580   1.479       .  S
C166        C565   1.482       .  S
C167        C364   1.482       .  S
C168        C436   1.487       .  S
O169       Ni177   1.913       .  S
O169        C179   1.280       .  A
O170       Ni177   1.911       .  S
O170        C180   1.280       .  A
O171       Ni177   1.914       .  S
O171        C181   1.282       .  A
O172       Ni177   1.914       .  S
O172        C182   1.281       .  A
O173       Ni178   1.914       .  S
O173        C182   1.281       .  A
O174       Ni178   1.914       .  S
O174        C181   1.280       .  A
O175       Ni178   1.923       .  S
O175        C180   1.283       .  A
O176       Ni178   1.918       .  S
O176        C179   1.283       .  A
Ni177      Ni178   2.385       .  S
C179        C304   1.486       .  S
C180        C313   1.486       .  S
C181        C424   1.482       .  S
C182       C1096   1.477   1_554  S
O183       Ni875   1.923       .  S
O183        C193   1.283       .  A
O184       Ni191   1.918   1_554  S
O184        C194   1.283       .  A
O185       Ni875   1.908       .  S
O185        C195   1.281       .  A
O186       Ni191   1.910   1_554  S
O186        C196   1.279       .  A
O187       Ni192   1.917       .  S
O187        C196   1.282       .  A
O188       Ni876   1.918       .  S
O188        C195   1.281       .  A
O189       Ni192   1.916       .  S
O189        C194   1.281       .  A
O190       Ni876   1.911       .  S
O190        C193   1.280       .  A
Ni191       O867   1.923       .  S
Ni191       O869   1.908       .  S
Ni191      Ni192   2.385   1_556  S
Ni192       O872   1.918   1_554  S
Ni192       O874   1.912   1_554  S
C193        C289   1.486       .  S
C194        C316   1.488       .  S
C195        C472   1.483       .  S
C196        C484   1.473       .  S
O197       Ni205   1.920       .  S
O197        C207   1.282       .  A
O198       Ni205   1.921       .  S
O198        C208   1.282       .  A
O199       Ni205   1.912       .  S
O199        C209   1.280       .  A
O200       Ni205   1.909       .  S
O200        C210   1.279       .  A
O201       Ni206   1.921       .  S
O201        C210   1.283       .  A
O202       Ni206   1.916       .  S
O202        C209   1.282       .  A
O203       Ni206   1.916       .  S
O203        C208   1.282       .  A
O204       Ni206   1.917       .  S
O204        C207   1.281       .  A
Ni205      Ni206   2.385       .  S
C207        C604   1.481       .  S
C208        C616   1.487       .  S
C209        C277   1.483       .  S
C210        C301   1.487       .  S
O211       Ni219   1.918       .  S
O211        C221   1.281   1_655  A
O212       Ni219   1.920       .  S
O212        C222   1.282   1_655  A
O213       Ni219   1.915       .  S
O213        C223   1.282       .  A
O214       Ni219   1.921       .  S
O214        C224   1.283   1_655  A
O215       Ni220   1.906       .  S
O215        C224   1.279       .  A
O216       Ni220   1.914       .  S
O216        C223   1.281   1_455  A
O217       Ni220   1.918       .  S
O217        C222   1.281       .  A
O218       Ni220   1.916       .  S
O218        C221   1.281       .  A
Ni219      Ni220   2.387   1_655  S
C221        C376   1.477       .  S
C222        C388   1.479       .  S
C223        C268   1.480       .  S
C224        C280   1.485       .  S
O225       Ni233   1.910       .  S
O225        C235   1.280       .  A
O226       Ni233   1.912       .  S
O226        C236   1.280       .  A
O227       Ni233   1.921       .  S
O227        C237   1.282       .  A
O228       Ni233   1.914       .  S
O228        C238   1.282       .  A
O229       Ni234   1.916       .  S
O229        C238   1.281       .  A
O230       Ni234   1.911       .  S
O230        C237   1.281       .  A
O231       Ni234   1.920       .  S
O231        C236   1.282       .  A
O232       Ni234   1.921       .  S
O232        C235   1.282       .  A
Ni233      Ni234   2.386       .  S
C235        C496   1.480       .  S
C236        C508   1.480       .  S
C237        C253   1.486       .  S
C238        C265   1.484       .  S
O239       Ni247   1.912       .  S
O239        C249   1.281       .  A
O240       Ni247   1.918       .  S
O240        C250   1.281       .  A
O241       Ni247   1.924       .  S
O241        C251   1.283       .  A
O242       Ni247   1.923       .  S
O242        C252   1.283       .  A
O243       Ni248   1.918       .  S
O243        C252   1.282       .  A
O244       Ni248   1.916       .  S
O244        C251   1.281       .  A
O245       Ni248   1.916       .  S
O245        C250   1.282       .  A
O246       Ni248   1.921       .  S
O246        C249   1.283       .  A
Ni247      Ni248   2.384       .  S
C249        C256   1.488       .  S
C250        C292   1.488       .  S
C251        C325   1.485       .  S
C252       C1021   1.486       .  S
C253        C254   1.405       .  A
C253        C258   1.412       .  A
C254        C255   1.397   1_545  A
C254        H259   1.083       .  S
C255        C256   1.413       .  A
C255        O260   1.372       .  S
C256        C257   1.408       .  A
C257        C258   1.402   1_565  A
C257        H261   1.083       .  S
C258        O262   1.371       .  S
O260        H264   0.992       .  S
O262        H263   0.992       .  S
C265        C266   1.405       .  A
C265        C270   1.413       .  A
C266        C267   1.397       .  A
C266        H271   1.083       .  S
C267        C268   1.410       .  A
C267        O272   1.372       .  S
C268        C269   1.404       .  A
C269        C270   1.400       .  A
C269        H273   1.084       .  S
C270        O274   1.372       .  S
O272        H276   0.992       .  S
O274        H275   0.992       .  S
C277        C278   1.403       .  A
C277        C282   1.412       .  A
C278        C279   1.396       .  A
C278        H283   1.083       .  S
C279        C280   1.414       .  A
C279        O284   1.372       .  S
C280        C281   1.406       .  A
C281        C282   1.400       .  A
C281        H285   1.083       .  S
C282        O286   1.372       .  S
O284        H288   0.992       .  S
O286        H287   0.992       .  S
C289        C290   1.405       .  A
C289        C294   1.413       .  A
C290        C291   1.403       .  A
C290        H295   1.083       .  S
C291        C292   1.414       .  A
C291        O296   1.371       .  S
C292        C293   1.405       .  A
C293        C294   1.398       .  A
C293        H297   1.083       .  S
C294        O982   1.372       .  S
O296        H300   0.992       .  S
O298        C978   1.372       .  S
O298        H299   0.993       .  S
C301        C302   1.405       .  A
C301        C306   1.414       .  A
C302        C303   1.400   1_565  A
C302        H307   1.083       .  S
C303        C304   1.413       .  A
C303        O308   1.371       .  S
C304        C305   1.405       .  A
C305        C306   1.398   1_545  A
C305        H309   1.083       .  S
C306        O310   1.372       .  S
O308        H312   0.992       .  S
O310        H311   0.991       .  S
C313        C314   1.405       .  A
C313        C318   1.413       .  A
C314        C315   1.402       .  A
C314        H319   1.083       .  S
C315        C316   1.414       .  A
C315       O1004   1.371       .  S
C316        C317   1.405       .  A
C317        C318   1.399       .  A
C317        H321   1.083       .  S
C318        O322   1.372       .  S
O320        C999   1.371       .  S
O320        H324   0.992       .  S
O322        H323   0.992       .  S
C325        C326   1.406       .  A
C325        C330   1.411       .  A
C326        C327   1.402       .  A
C326        H331   1.083       .  S
C327        C328   1.410       .  A
C327        O332   1.372       .  S
C328        C329   1.405       .  A
C329        C330   1.402       .  A
C329        H333   1.084       .  S
C330        O334   1.372       .  S
O332        H336   0.992       .  S
O334        H335   0.992       .  S
C337        C936   1.486   1_554  S
C337        C338   1.406       .  A
C337        C342   1.411       .  A
C338        C339   1.401       .  A
C338        H343   1.083       .  S
C339        C340   1.409       .  A
C339        O344   1.372       .  S
C340        C341   1.407       .  A
C341        C342   1.403       .  A
C341        H345   1.084       .  S
C342        O346   1.372       .  S
O344        H348   0.992       .  S
O346        H347   0.991       .  S
C349        C350   1.404       .  A
C349        C354   1.408       .  A
C350        C351   1.401       .  A
C350        H355   1.084       .  S
C351        C352   1.411       .  A
C351        O356   1.372       .  S
C352        C353   1.405       .  A
C353        C354   1.396       .  A
C353        H357   1.084       .  S
C354        O358   1.372       .  S
O356        H360   0.992       .  S
O358        H359   0.992       .  S
C361        C362   1.408       .  A
C361        C366   1.413       .  A
C362        C363   1.404       .  A
C362        H367   1.083       .  S
C363        C364   1.410       .  A
C363        O368   1.372       .  S
C364        C365   1.403       .  A
C365        C366   1.398       .  A
C365        H369   1.084       .  S
C366        O370   1.372       .  S
O368        H372   0.992       .  S
O370        H371   0.992       .  S
C373        C374   1.406   1_655  A
C373        C378   1.411       .  A
C374        C375   1.400       .  A
C374        H379   1.083       .  S
C375        C376   1.407       .  A
C375        O380   1.372       .  S
C376        C377   1.404   1_455  A
C377        C378   1.400       .  A
C377        H381   1.084       .  S
C378        O382   1.371       .  S
O380        H384   0.992       .  S
O382        H383   0.992       .  S
C385        C386   1.408   1_455  A
C385        C390   1.413       .  A
C386        C387   1.403       .  A
C386        H391   1.083       .  S
C387        C388   1.407   1_655  A
C387        O392   1.372       .  S
C388        C389   1.403       .  A
C389        C390   1.401       .  A
C389        H393   1.084       .  S
C390        O394   1.372       .  S
O392        H396   0.992       .  S
O394        H395   0.992       .  S
C397        C398   1.405       .  A
C397        C402   1.411       .  A
C398        C399   1.396       .  A
C398        H403   1.084       .  S
C399        C400   1.408       .  A
C399        O404   1.372       .  S
C400        C401   1.405       .  A
C401        C402   1.399       .  A
C401        H405   1.084       .  S
C402        O406   1.372   1_655  S
O404        H408   0.992       .  S
O406        H407   0.992       .  S
C409        C410   1.405       .  A
C409        C414   1.410       .  A
C410        C411   1.400       .  A
C410        H415   1.084       .  S
C411        C412   1.409       .  A
C411        O416   1.372       .  S
C412        C866   1.477       .  S
C412        C413   1.405       .  A
C413        C414   1.398       .  A
C413        H417   1.084       .  S
C414        O418   1.372       .  S
O416        H420   0.992       .  S
O418        H419   0.992       .  S
C421        C422   1.401       .  A
C421        C426   1.409       .  A
C422        C423   1.401       .  A
C422        H427   1.084       .  S
C423        C424   1.415       .  A
C423        O428   1.372       .  S
C424        C425   1.405       .  A
C425        C426   1.396       .  A
C425        H429   1.083       .  S
C426        O430   1.373       .  S
O428        H432   0.992       .  S
O430        H431   0.992       .  S
C433        C434   1.408       .  A
C433        C438   1.413       .  A
C434        C435   1.403       .  A
C434        H439   1.083       .  S
C435        C436   1.410       .  A
C435        O440   1.372       .  S
C436        C437   1.406       .  A
C437        C438   1.400       .  A
C437        H441   1.083       .  S
C438        O442   1.372       .  S
O440        H444   0.992   1_545  S
O442        H443   0.992       .  S
C445        C446   1.406       .  A
C445        C450   1.413       .  A
C446        C447   1.397       .  A
C446        H451   1.083       .  S
C447        C448   1.410       .  A
C447       O1136   1.372       .  S
C448        C449   1.406       .  A
C449        C450   1.402       .  A
C449        H453   1.083       .  S
C450        O454   1.371       .  S
O452       C1131   1.372       .  S
O452        H456   0.992       .  S
O454        H455   0.992       .  S
C457        C458   1.405       .  A
C457        C462   1.414       .  A
C458        C459   1.400       .  A
C458        H463   1.083       .  S
C459        C460   1.412       .  A
C459        O464   1.372       .  S
C460        C461   1.405       .  A
C461        C462   1.403       .  A
C461        H465   1.084       .  S
C462        O466   1.372       .  S
O464        H468   0.992       .  S
O466        H467   0.992       .  S
C469        C470   1.401       .  A
C469        C474   1.405       .  A
C470        C471   1.403       .  A
C470        H475   1.084       .  S
C471        C472   1.415       .  A
C471        O476   1.371       .  S
C472        C473   1.405       .  A
C473        C474   1.394       .  A
C473        H477   1.083       .  S
C474        O478   1.372       .  S
O476        H480   0.992       .  S
O478        H479   0.992       .  S
C481        C482   1.406       .  A
C481        C486   1.414       .  A
C482        C483   1.398       .  A
C482        H487   1.083       .  S
C483        C484   1.409       .  A
C483        O488   1.373       .  S
C484        C485   1.400       .  A
C485        C486   1.399       .  A
C485        H489   1.084       .  S
C486        O490   1.371       .  S
O488        H492   0.992       .  S
O490        H491   0.992       .  S
C493        C753   1.479       .  S
C493        C494   1.405       .  A
C493        C498   1.410       .  A
C494        C495   1.400       .  A
C494        H499   1.084       .  S
C495        C496   1.410       .  A
C495        O500   1.371       .  S
C496        C497   1.404       .  A
C497        C498   1.398       .  A
C497        H501   1.084       .  S
C498        O502   1.372       .  S
O500        H504   0.991       .  S
O502        H503   0.992       .  S
C505        C506   1.406       .  A
C505        C510   1.409       .  A
C506        C507   1.400       .  A
C506        H511   1.084       .  S
C507        C508   1.408       .  A
C507        O512   1.372       .  S
C508        C509   1.405       .  A
C509        C510   1.400       .  A
C509        H513   1.084       .  S
C510        O514   1.372       .  S
O512        H516   0.992       .  S
O514        H515   0.992       .  S
C517        C518   1.405       .  A
C517        C522   1.409       .  A
C518        C519   1.402       .  A
C518        H523   1.084       .  S
C519        C520   1.413       .  A
C519        O524   1.371       .  S
C520        C521   1.406       .  A
C521        C522   1.402       .  A
C521        H525   1.083       .  S
C522        O526   1.372       .  S
O524        H528   0.992       .  S
O526        H527   0.992       .  S
C529        C781   1.487   1_554  S
C529        C530   1.406       .  A
C529        C534   1.409       .  A
C530        C531   1.405       .  A
C530        H535   1.084       .  S
C531        C532   1.412       .  A
C531        O536   1.372       .  S
C532        C533   1.408       .  A
C533        C534   1.402       .  A
C533        H537   1.083       .  S
C534        O538   1.371       .  S
O536        H540   0.992       .  S
O538        H539   0.992       .  S
C541        C542   1.406       .  A
C541        C546   1.412       .  A
C542        C543   1.401   1_655  A
C542        H547   1.083       .  S
C543        C544   1.413       .  A
C543        O548   1.371       .  S
C544        C545   1.405       .  A
C545        C546   1.396   1_455  A
C545        H549   1.083       .  S
C546        O550   1.372       .  S
O548        H552   0.992       .  S
O550        H551   0.992       .  S
C553        C554   1.405       .  A
C553        C558   1.412       .  A
C554        C555   1.402       .  A
C554        H559   1.083       .  S
C555        C556   1.413       .  A
C555        O560   1.372       .  S
C556        C557   1.406       .  A
C557        C558   1.399       .  A
C557        H561   1.083       .  S
C558        O562   1.372       .  S
O560        H564   0.992       .  S
O562        H563   0.992       .  S
C565        C566   1.404   1_545  A
C565        C570   1.412       .  A
C566        C567   1.397       .  A
C566        H571   1.084       .  S
C567        C568   1.410   1_565  A
C567        O572   1.372       .  S
C568        C569   1.405       .  A
C569        C570   1.403       .  A
C569        H573   1.084       .  S
C570        O574   1.372       .  S
O572        H576   0.992       .  S
O574        H575   0.992       .  S
C577        C578   1.405   1_545  A
C577        C582   1.412       .  A
C578        C579   1.400       .  A
C578        H583   1.084       .  S
C579        C580   1.411   1_565  A
C579        O584   1.372       .  S
C580        C581   1.402       .  A
C581        C582   1.400       .  A
C581        H585   1.084       .  S
C582        O586   1.372       .  S
O584        H588   0.992       .  S
O586        H587   0.992       .  S
C589        C590   1.404       .  A
C589        C594   1.410       .  A
C590        C591   1.398       .  A
C590        H595   1.084       .  S
C591        C592   1.412       .  A
C591        O596   1.372       .  S
C592        C593   1.406       .  A
C593        C594   1.399       .  A
C593        H597   1.083       .  S
C594        O598   1.372       .  S
O596        H600   0.992       .  S
O598        H599   0.992       .  S
C601        C602   1.405       .  A
C601        C606   1.413       .  A
C602        C603   1.400       .  A
C602        H607   1.084       .  S
C603        C604   1.411       .  A
C603        O608   1.372       .  S
C604        C605   1.403       .  A
C605        C606   1.401       .  A
C605        H609   1.084       .  S
C606        O610   1.372       .  S
O608        H612   0.991       .  S
O610        H611   0.993       .  S
C613        C711   1.481   1_554  S
C613        C614   1.404       .  A
C613        C618   1.410       .  A
C614        C615   1.402       .  A
C614        H619   1.084       .  S
C615        C616   1.413       .  A
C615        O620   1.372       .  S
C616        C617   1.406       .  A
C617        C618   1.400       .  A
C617        H621   1.083       .  S
C618        O622   1.372       .  S
O620        H624   0.992       .  S
O622        H623   0.992       .  S
C625        C626   1.405       .  A
C625        C630   1.412       .  A
C626        C627   1.396       .  A
C626        H631   1.083       .  S
C627        C628   1.411       .  A
C627        O632   1.372       .  S
C628        C629   1.406       .  A
C629        C630   1.401       .  A
C629        H633   1.083       .  S
C630        O634   1.372       .  S
O632        H636   0.992       .  S
O634        H635   0.992       .  S
C637        C638   1.404       .  A
C637        C642   1.408       .  A
C638        C639   1.399       .  A
C638        H643   1.084       .  S
C639        C640   1.409       .  A
C639        O644   1.372       .  S
C640        C837   1.480       .  S
C640        C641   1.407       .  A
C641        C642   1.399       .  A
C641        H645   1.084       .  S
C642        O646   1.372       .  S
O644        H648   0.992       .  S
O646        H647   0.992       .  S
C649        C650   1.402       .  A
C649        C654   1.407       .  A
C650        C651   1.401       .  A
C650        H655   1.084       .  S
C651        C652   1.414       .  A
C651        O656   1.371       .  S
C652        C653   1.407       .  A
C653        C654   1.397       .  A
C653        H657   1.083       .  S
C654        O658   1.372       .  S
O656        H660   0.992       .  S
O658        H659   0.995       .  S
C661        C662   1.405       .  A
C661        C666   1.408       .  A
C662        C663   1.401       .  A
C662        H667   1.084       .  S
C663        C664   1.411       .  A
C663        O668   1.372       .  S
C664        C665   1.406       .  A
C665        C666   1.401       .  A
C665        H669   1.083       .  S
C666        O670   1.372       .  S
O668        H672   0.992       .  S
O670        H671   0.992       .  S
C673        C674   1.406       .  A
C673        C678   1.413       .  A
C674        C675   1.397   1_655  A
C674        H679   1.083       .  S
C675        C676   1.410       .  A
C675        O680   1.372       .  S
C676        C677   1.406       .  A
C677        C678   1.403   1_455  A
C677        H681   1.084       .  S
C678        O682   1.371       .  S
O680        H684   0.992       .  S
O682        H683   0.992       .  S
O685       Ni693   1.911       .  S
O685        C695   1.281       .  A
O686       Ni693   1.918       .  S
O686        C696   1.282       .  A
O687       Ni693   1.914       .  S
O687        C697   1.281       .  A
O688       Ni693   1.912       .  S
O688        C698   1.280       .  A
O689       Ni694   1.917       .  S
O689        C698   1.281       .  A
O690       Ni694   1.915       .  S
O690        C697   1.281       .  A
O691       Ni694   1.917       .  S
O691        C696   1.281       .  A
O692       Ni694   1.924       .  S
O692        C695   1.283       .  A
Ni693      Ni694   2.387       .  S
C695       C1357   1.487       .  S
C696       C1348   1.484       .  S
C697       C1321   1.476       .  S
C698       C1333   1.472       .  S
O699       Ni707   1.920       .  S
O699        C709   1.282       .  A
O700       Ni707   1.917       .  S
O700        C710   1.282       .  A
O701       Ni707   1.917       .  S
O701        C711   1.281       .  A
O702       Ni707   1.916       .  S
O702        C712   1.281       .  A
O703       Ni708   1.920       .  S
O703        C712   1.283       .  A
O704       Ni708   1.920       .  S
O704        C711   1.282       .  A
O705       Ni708   1.917       .  S
O705        C710   1.281       .  A
O706       Ni708   1.908       .  S
O706        C709   1.281       .  A
Ni707      Ni708   2.385       .  S
C709       C1309   1.485       .  S
C710       C1360   1.483       .  S
C712       C1285   1.485       .  S
O713       Ni721   1.916       .  S
O713        C723   1.281   1_545  A
O714        C724   1.280       .  A
O715       Ni721   1.921       .  S
O715        C725   1.282       .  A
O716        C726   1.282   1_545  A
O717        C726   1.281       .  A
O718       Ni722   1.912   1_556  S
O718        C725   1.280   1_565  A
O719        C724   1.282   1_565  A
O720       Ni722   1.912   1_556  S
O720        C723   1.281       .  A
Ni721      Ni722   2.386   1_546  S
C723       C1312   1.483       .  S
C724       C1276   1.482       .  S
C725       C1252   1.480       .  S
C726       C1261   1.483   1_565  S
O727       Ni735   1.918       .  S
O727        C737   1.281       .  A
O728       Ni735   1.916       .  S
O728        C738   1.282       .  A
O729       Ni735   1.926       .  S
O729        C739   1.283       .  A
O730       Ni735   1.924       .  S
O730        C740   1.283       .  A
O731       Ni736   1.918       .  S
O731        C740   1.281       .  A
O732       Ni736   1.922       .  S
O732        C739   1.282       .  A
O733       Ni736   1.918       .  S
O733        C738   1.281       .  A
O734       Ni736   1.912       .  S
O734        C737   1.282       .  A
Ni735      Ni736   2.383       .  S
C737       C1228   1.486       .  S
C738       C1240   1.488       .  S
C739       C1216   1.492       .  S
C740       C1204   1.488       .  S
O741       Ni749   1.915       .  S
O741        C751   1.282       .  A
O742       Ni749   1.918       .  S
O742        C752   1.282       .  A
O743       Ni749   1.915       .  S
O743        C753   1.281       .  A
O744       Ni749   1.916       .  S
O744        C754   1.281       .  A
O745       Ni750   1.915       .  S
O745        C754   1.281       .  A
O746       Ni750   1.916       .  S
O746        C753   1.281       .  A
O747       Ni750   1.908       .  S
O747        C752   1.280       .  A
O748       Ni750   1.914       .  S
O748        C751   1.280       .  A
Ni749      Ni750   2.386       .  S
C751       C1273   1.479       .  S
C752       C1225   1.484       .  S
C754       C1189   1.480       .  S
O755       Ni763   1.915       .  S
O755        C765   1.281       .  A
O756       Ni763   1.918       .  S
O756        C766   1.281       .  A
O757       Ni763   1.915       .  S
O757        C767   1.281       .  A
O758       Ni763   1.917       .  S
O758        C768   1.280       .  A
O759       Ni764   1.908       .  S
O759        C768   1.280       .  A
O760       Ni764   1.915       .  S
O760        C767   1.282       .  A
O761       Ni764   1.918       .  S
O761        C766   1.282       .  A
O762       Ni764   1.922       .  S
O762        C765   1.283       .  A
Ni763      Ni764   2.387       .  S
C765       C1237   1.487       .  S
C766       C1345   1.479       .  S
C767       C1165   1.484       .  S
C768       C1153   1.468       .  S
O769       Ni777   1.923       .  S
O769        C779   1.282       .  A
O770       Ni777   1.919       .  S
O770        C780   1.283       .  A
O771       Ni777   1.922       .  S
O771        C781   1.282       .  A
O772       Ni777   1.923       .  S
O772        C782   1.282       .  A
O773       Ni778   1.920       .  S
O773        C782   1.282       .  A
O774       Ni778   1.925       .  S
O774        C781   1.283       .  A
O775       Ni778   1.919       .  S
O775        C780   1.281       .  A
O776       Ni778   1.909       .  S
O776        C779   1.281       .  A
Ni777      Ni778   2.384       .  S
C779       C1129   1.486       .  S
C780       C1141   1.489       .  S
C782       C1201   1.484       .  S
O783       Ni791   1.920       .  S
O783        C793   1.282       .  A
O784       Ni791   1.915       .  S
O784        C794   1.281       .  A
O785       Ni791   1.917       .  S
O785        C795   1.281       .  A
O786       Ni791   1.917       .  S
O786        C796   1.282       .  A
O787       Ni792   1.912       .  S
O787        C796   1.280       .  A
O788       Ni792   1.909       .  S
O788        C795   1.280       .  A
O789       Ni792   1.924       .  S
O789        C794   1.283       .  A
O790       Ni792   1.919       .  S
O790        C793   1.282       .  A
Ni791      Ni792   2.386       .  S
C793       C1117   1.491       .  S
C794       C1144   1.486       .  S
C795       C1105   1.473       .  S
C796       C1093   1.478       .  S
O797        C807   1.280       .  A
O798       Ni805   1.913   1_456  S
O798        C808   1.280       .  A
O799        C809   1.283   1_655  A
O800       Ni805   1.919   1_556  S
O800        C810   1.282       .  A
O801       Ni806   1.915   1_556  S
O801        C810   1.281   1_455  A
O802        C809   1.281       .  A
O803       Ni806   1.917   1_556  S
O803        C808   1.282       .  A
O804        C807   1.281   1_455  A
Ni805      Ni806   2.385   1_655  S
C807       C1081   1.478       .  S
C808       C1132   1.483       .  S
C809       C1069   1.489       .  S
C810       C1057   1.483       .  S
O811       Ni819   1.921       .  S
O811        C821   1.282       .  A
O812       Ni819   1.919       .  S
O812        C822   1.282       .  A
O813       Ni819   1.916       .  S
O813        C823   1.282       .  A
O814       Ni819   1.927       .  S
O814        C824   1.284       .  A
O815       Ni820   1.911       .  S
O815        C824   1.280       .  A
O816       Ni820   1.913       .  S
O816        C823   1.280       .  A
O817       Ni820   1.920       .  S
O817        C822   1.282       .  A
O818       Ni820   1.921       .  S
O818        C821   1.283       .  A
Ni819      Ni820   2.386       .  S
C821       C1024   1.486       .  S
C822       C1012   1.483       .  S
C823       C1033   1.477       .  S
C824       C1045   1.488       .  S
O825       Ni833   1.916       .  S
O825        C835   1.282       .  A
O826       Ni833   1.921       .  S
O826        C836   1.282       .  A
O827       Ni833   1.910       .  S
O827        C837   1.280       .  A
O828       Ni833   1.911       .  S
O828        C838   1.281       .  A
O829       Ni834   1.920       .  S
O829        C838   1.282       .  A
O830       Ni834   1.918       .  S
O830        C837   1.282       .  A
O831       Ni834   1.906       .  S
O831        C836   1.280       .  A
O832       Ni834   1.908       .  S
O832        C835   1.279       .  A
Ni833      Ni834   2.386       .  S
C835       C1084   1.475       .  S
C836       C1036   1.481       .  S
C838       C1336   1.485       .  S
O839       Ni847   1.922       .  S
O839        C849   1.283       .  A
O840       Ni847   1.922       .  S
O840        C850   1.282       .  A
O841       Ni847   1.920       .  S
O841        C851   1.281   1_545  A
O842       Ni847   1.914       .  S
O842        C852   1.281       .  A
O843       Ni848   1.925       .  S
O843        C852   1.283   1_565  A
O844       Ni848   1.920       .  S
O844        C851   1.283       .  A
O845       Ni848   1.912       .  S
O845        C850   1.281   1_565  A
O846       Ni848   1.910       .  S
O846        C849   1.279   1_565  A
Ni847      Ni848   2.386   1_545  S
C849       C1264   1.479       .  S
C850       C1249   1.482       .  S
C851       C1048   1.483       .  S
C852       C1120   1.487       .  S
O853       Ni861   1.913       .  S
O853        C863   1.280       .  A
O854       Ni861   1.911       .  S
O854        C864   1.280       .  A
O855       Ni861   1.914       .  S
O855        C865   1.282       .  A
O856       Ni861   1.914       .  S
O856        C866   1.281       .  A
O857       Ni862   1.914       .  S
O857        C866   1.281       .  A
O858       Ni862   1.914       .  S
O858        C865   1.280       .  A
O859       Ni862   1.923       .  S
O859        C864   1.283       .  A
O860       Ni862   1.918       .  S
O860        C863   1.283       .  A
Ni861      Ni862   2.385       .  S
C863        C988   1.486       .  S
C864        C997   1.486       .  S
C865       C1108   1.482       .  S
O867        C877   1.283       .  A
O868       Ni875   1.918       .  S
O868        C878   1.283       .  A
O869        C879   1.281       .  A
O870       Ni875   1.911       .  S
O870        C880   1.279       .  A
O871       Ni876   1.917       .  S
O871        C880   1.282       .  A
O872        C879   1.281       .  A
O873       Ni876   1.916       .  S
O873        C878   1.281       .  A
O874        C877   1.280       .  A
Ni875      Ni876   2.385       .  S
C877        C973   1.487       .  S
C878       C1000   1.488       .  S
C879       C1156   1.483       .  S
C880       C1168   1.473       .  S
O881       Ni889   1.920       .  S
O881        C891   1.282       .  A
O882       Ni889   1.921       .  S
O882        C892   1.282       .  A
O883       Ni889   1.912       .  S
O883        C893   1.280       .  A
O884       Ni889   1.909       .  S
O884        C894   1.279       .  A
O885       Ni890   1.921       .  S
O885        C894   1.283       .  A
O886       Ni890   1.916       .  S
O886        C893   1.283       .  A
O887       Ni890   1.916       .  S
O887        C892   1.282       .  A
O888       Ni890   1.916       .  S
O888        C891   1.281       .  A
Ni889      Ni890   2.385       .  S
C891       C1288   1.481       .  S
C892       C1300   1.486       .  S
C893        C961   1.483       .  S
C894        C985   1.487       .  S
O895       Ni903   1.918       .  S
O895        C905   1.281   1_655  A
O896       Ni903   1.920       .  S
O896        C906   1.282   1_655  A
O897       Ni903   1.915       .  S
O897        C907   1.282       .  A
O898       Ni903   1.922       .  S
O898        C908   1.283   1_655  A
O899       Ni904   1.906       .  S
O899        C908   1.279       .  A
O900       Ni904   1.914       .  S
O900        C907   1.281   1_455  A
O901       Ni904   1.918       .  S
O901        C906   1.281       .  A
O902       Ni904   1.916       .  S
O902        C905   1.281       .  A
Ni903      Ni904   2.387   1_655  S
C905       C1060   1.477       .  S
C906       C1072   1.479       .  S
C907        C952   1.480       .  S
C908        C964   1.485       .  S
O909       Ni917   1.910       .  S
O909        C919   1.280       .  A
O910       Ni917   1.912       .  S
O910        C920   1.280       .  A
O911       Ni917   1.921       .  S
O911        C921   1.282       .  A
O912       Ni917   1.915       .  S
O912        C922   1.282       .  A
O913       Ni918   1.916       .  S
O913        C922   1.281       .  A
O914       Ni918   1.911       .  S
O914        C921   1.281       .  A
O915       Ni918   1.920       .  S
O915        C920   1.282       .  A
O916       Ni918   1.921       .  S
O916        C919   1.282       .  A
Ni917      Ni918   2.386       .  S
C919       C1180   1.480       .  S
C920       C1192   1.480       .  S
C921        C937   1.485       .  S
C922        C949   1.485       .  S
O923       Ni931   1.912       .  S
O923        C933   1.281       .  A
O924       Ni931   1.918       .  S
O924        C934   1.281       .  A
O925       Ni931   1.924       .  S
O925        C935   1.283       .  A
O926       Ni931   1.924       .  S
O926        C936   1.283       .  A
O927       Ni932   1.918       .  S
O927        C936   1.282       .  A
O928       Ni932   1.916       .  S
O928        C935   1.281       .  A
O929       Ni932   1.916       .  S
O929        C934   1.282       .  A
O930       Ni932   1.921       .  S
O930        C933   1.282       .  A
Ni931      Ni932   2.384       .  S
C933        C940   1.488       .  S
C934        C976   1.488       .  S
C935       C1009   1.485       .  S
C937        C938   1.404       .  A
C937        C942   1.411       .  A
C938        C939   1.397   1_545  A
C938        H943   1.083       .  S
C939        C940   1.413       .  A
C939        O944   1.372       .  S
C940        C941   1.408       .  A
C941        C942   1.402   1_565  A
C941        H945   1.083       .  S
C942        O946   1.372       .  S
O944        H948   0.992       .  S
O946        H947   0.992       .  S
C949        C950   1.405       .  A
C949        C954   1.413       .  A
C950        C951   1.397       .  A
C950        H955   1.083       .  S
C951        C952   1.410       .  A
C951        O956   1.372       .  S
C952        C953   1.404       .  A
C953        C954   1.400       .  A
C953        H957   1.084       .  S
C954        O958   1.372       .  S
O956        H960   0.992       .  S
O958        H959   0.992       .  S
C961        C962   1.403       .  A
C961        C966   1.413       .  A
C962        C963   1.397       .  A
C962        H967   1.083       .  S
C963        C964   1.414       .  A
C963        O968   1.372       .  S
C964        C965   1.406       .  A
C965        C966   1.400       .  A
C965        H969   1.083       .  S
C966        O970   1.372       .  S
O968        H972   0.992       .  S
O970        H971   0.992       .  S
C973        C974   1.405       .  A
C973        C978   1.413       .  A
C974        C975   1.403       .  A
C974        H979   1.083       .  S
C975        C976   1.414       .  A
C975        O980   1.371       .  S
C976        C977   1.405       .  A
C977        C978   1.398       .  A
C977        H981   1.083       .  S
O980        H984   0.992       .  S
O982        H983   0.993       .  S
C985        C986   1.405       .  A
C985        C990   1.414       .  A
C986        C987   1.400   1_565  A
C986        H991   1.083       .  S
C987        C988   1.413       .  A
C987        O992   1.371       .  S
C988        C989   1.404       .  A
C989        C990   1.398   1_545  A
C989        H993   1.083       .  S
C990        O994   1.372       .  S
O992        H996   0.992       .  S
O994        H995   0.991       .  S
C997        C998   1.404       .  A
C997       C1002   1.413       .  A
C998        C999   1.402       .  A
C998       H1003   1.083       .  S
C999       C1000   1.414       .  A
C1000      C1001   1.405       .  A
C1001      C1002   1.399       .  A
C1001      H1005   1.083       .  S
C1002      O1006   1.372       .  S
O1004      H1008   0.992       .  S
O1006      H1007   0.992       .  S
C1009      C1010   1.406       .  A
C1009      C1014   1.411       .  A
C1010      C1011   1.402       .  A
C1010      H1015   1.083       .  S
C1011      C1012   1.410       .  A
C1011      O1016   1.372       .  S
C1012      C1013   1.405       .  A
C1013      C1014   1.402       .  A
C1013      H1017   1.084       .  S
C1014      O1018   1.372       .  S
O1016      H1020   0.992       .  S
O1018      H1019   0.992       .  S
C1021      C1022   1.406       .  A
C1021      C1026   1.411       .  A
C1022      C1023   1.401       .  A
C1022      H1027   1.083       .  S
C1023      C1024   1.409       .  A
C1023      O1028   1.372       .  S
C1024      C1025   1.407       .  A
C1025      C1026   1.403       .  A
C1025      H1029   1.084       .  S
C1026      O1030   1.372       .  S
O1028      H1032   0.992       .  S
O1030      H1031   0.992       .  S
C1033      C1034   1.405       .  A
C1033      C1038   1.408       .  A
C1034      C1035   1.401       .  A
C1034      H1039   1.084       .  S
C1035      C1036   1.412       .  A
C1035      O1040   1.372       .  S
C1036      C1037   1.405       .  A
C1037      C1038   1.396       .  A
C1037      H1041   1.084       .  S
C1038      O1042   1.372       .  S
O1040      H1044   0.992       .  S
O1042      H1043   0.992       .  S
C1045      C1046   1.408       .  A
C1045      C1050   1.413       .  A
C1046      C1047   1.404       .  A
C1046      H1051   1.083       .  S
C1047      C1048   1.410       .  A
C1047      O1052   1.372       .  S
C1048      C1049   1.403       .  A
C1049      C1050   1.398       .  A
C1049      H1053   1.084       .  S
C1050      O1054   1.372       .  S
O1052      H1056   0.992       .  S
O1054      H1055   0.992       .  S
C1057      C1058   1.406   1_655  A
C1057      C1062   1.411       .  A
C1058      C1059   1.400       .  A
C1058      H1063   1.083       .  S
C1059      C1060   1.407       .  A
C1059      O1064   1.372       .  S
C1060      C1061   1.404   1_455  A
C1061      C1062   1.400       .  A
C1061      H1065   1.084       .  S
C1062      O1066   1.371       .  S
O1064      H1068   0.992       .  S
O1066      H1067   0.992       .  S
C1069      C1070   1.408   1_455  A
C1069      C1074   1.413       .  A
C1070      C1071   1.403       .  A
C1070      H1075   1.083       .  S
C1071      C1072   1.407   1_655  A
C1071      O1076   1.372       .  S
C1072      C1073   1.403       .  A
C1073      C1074   1.400       .  A
C1073      H1077   1.084       .  S
C1074      O1078   1.372       .  S
O1076      H1080   0.992       .  S
O1078      H1079   0.992       .  S
C1081      C1082   1.405       .  A
C1081      C1086   1.411       .  A
C1082      C1083   1.396       .  A
C1082      H1087   1.084       .  S
C1083      C1084   1.408       .  A
C1083      O1088   1.372       .  S
C1084      C1085   1.404       .  A
C1085      C1086   1.399       .  A
C1085      H1089   1.084       .  S
C1086      O1090   1.372   1_655  S
O1088      H1092   0.992       .  S
O1090      H1091   0.992       .  S
C1093      C1094   1.405       .  A
C1093      C1098   1.410       .  A
C1094      C1095   1.400       .  A
C1094      H1099   1.084       .  S
C1095      C1096   1.409       .  A
C1095      O1100   1.372       .  S
C1096      C1097   1.404       .  A
C1097      C1098   1.398       .  A
C1097      H1101   1.084       .  S
C1098      O1102   1.372       .  S
O1100      H1104   0.992       .  S
O1102      H1103   0.992       .  S
C1105      C1106   1.401       .  A
C1105      C1110   1.409       .  A
C1106      C1107   1.401       .  A
C1106      H1111   1.084       .  S
C1107      C1108   1.415       .  A
C1107      O1112   1.372       .  S
C1108      C1109   1.405       .  A
C1109      C1110   1.396       .  A
C1109      H1113   1.083       .  S
C1110      O1114   1.373       .  S
O1112      H1116   0.992       .  S
O1114      H1115   0.992       .  S
C1117      C1118   1.408       .  A
C1117      C1122   1.413       .  A
C1118      C1119   1.403       .  A
C1118      H1123   1.083       .  S
C1119      C1120   1.410       .  A
C1119      O1124   1.372       .  S
C1120      C1121   1.406       .  A
C1121      C1122   1.400       .  A
C1121      H1125   1.083       .  S
C1122      O1126   1.372       .  S
O1124      H1128   0.992   1_545  S
O1126      H1127   0.992       .  S
C1129      C1130   1.406       .  A
C1129      C1134   1.412       .  A
C1130      C1131   1.397       .  A
C1130      H1135   1.083       .  S
C1131      C1132   1.410       .  A
C1132      C1133   1.406       .  A
C1133      C1134   1.402       .  A
C1133      H1137   1.083       .  S
C1134      O1138   1.371       .  S
O1136      H1140   0.992       .  S
O1138      H1139   0.992       .  S
C1141      C1142   1.405       .  A
C1141      C1146   1.414       .  A
C1142      C1143   1.400       .  A
C1142      H1147   1.083       .  S
C1143      C1144   1.412       .  A
C1143      O1148   1.372       .  S
C1144      C1145   1.405       .  A
C1145      C1146   1.403       .  A
C1145      H1149   1.084       .  S
C1146      O1150   1.372       .  S
O1148      H1152   0.992       .  S
O1150      H1151   0.992       .  S
C1153      C1154   1.401       .  A
C1153      C1158   1.405       .  A
C1154      C1155   1.403       .  A
C1154      H1159   1.084       .  S
C1155      C1156   1.415       .  A
C1155      O1160   1.371       .  S
C1156      C1157   1.406       .  A
C1157      C1158   1.393       .  A
C1157      H1161   1.083       .  S
C1158      O1162   1.372       .  S
O1160      H1164   0.992       .  S
O1162      H1163   0.992       .  S
C1165      C1166   1.406       .  A
C1165      C1170   1.414       .  A
C1166      C1167   1.398       .  A
C1166      H1171   1.083       .  S
C1167      C1168   1.409       .  A
C1167      O1172   1.373       .  S
C1168      C1169   1.400       .  A
C1169      C1170   1.399       .  A
C1169      H1173   1.084       .  S
C1170      O1174   1.371       .  S
O1172      H1176   0.992       .  S
O1174      H1175   0.992       .  S
C1177      C1178   1.405       .  A
C1177      C1182   1.410       .  A
C1178      C1179   1.400       .  A
C1178      H1183   1.084       .  S
C1179      C1180   1.410       .  A
C1179      O1184   1.371       .  S
C1180      C1181   1.404       .  A
C1181      C1182   1.398       .  A
C1181      H1185   1.084       .  S
C1182      O1186   1.372       .  S
O1184      H1188   0.991       .  S
O1186      H1187   0.992       .  S
C1189      C1190   1.406       .  A
C1189      C1194   1.409       .  A
C1190      C1191   1.400       .  A
C1190      H1195   1.084       .  S
C1191      C1192   1.408       .  A
C1191      O1196   1.372       .  S
C1192      C1193   1.405       .  A
C1193      C1194   1.400       .  A
C1193      H1197   1.084       .  S
C1194      O1198   1.372       .  S
O1196      H1200   0.992       .  S
O1198      H1199   0.992       .  S
C1201      C1202   1.405       .  A
C1201      C1206   1.409       .  A
C1202      C1203   1.402       .  A
C1202      H1207   1.084       .  S
C1203      C1204   1.413       .  A
C1203      O1208   1.371       .  S
C1204      C1205   1.406       .  A
C1205      C1206   1.402       .  A
C1205      H1209   1.083       .  S
C1206      O1210   1.372       .  S
O1208      H1212   0.992       .  S
O1210      H1211   0.992       .  S
C1213      C1214   1.406       .  A
C1213      C1218   1.409       .  A
C1214      C1215   1.405       .  A
C1214      H1219   1.084       .  S
C1215      C1216   1.412       .  A
C1215      O1220   1.372       .  S
C1216      C1217   1.408       .  A
C1217      C1218   1.402       .  A
C1217      H1221   1.083       .  S
C1218      O1222   1.371       .  S
O1220      H1224   0.992       .  S
O1222      H1223   0.992       .  S
C1225      C1226   1.406       .  A
C1225      C1230   1.412       .  A
C1226      C1227   1.401   1_655  A
C1226      H1231   1.083       .  S
C1227      C1228   1.413       .  A
C1227      O1232   1.371       .  S
C1228      C1229   1.405       .  A
C1229      C1230   1.396   1_455  A
C1229      H1233   1.083       .  S
C1230      O1234   1.372       .  S
O1232      H1236   0.992       .  S
O1234      H1235   0.992       .  S
C1237      C1238   1.405       .  A
C1237      C1242   1.412       .  A
C1238      C1239   1.402       .  A
C1238      H1243   1.083       .  S
C1239      C1240   1.413       .  A
C1239      O1244   1.372       .  S
C1240      C1241   1.406       .  A
C1241      C1242   1.399       .  A
C1241      H1245   1.083       .  S
C1242      O1246   1.372       .  S
O1244      H1248   0.992       .  S
O1246      H1247   0.992       .  S
C1249      C1250   1.404   1_545  A
C1249      C1254   1.412       .  A
C1250      C1251   1.397       .  A
C1250      H1255   1.084       .  S
C1251      C1252   1.410   1_565  A
C1251      O1256   1.372       .  S
C1252      C1253   1.405       .  A
C1253      C1254   1.403       .  A
C1253      H1257   1.084       .  S
C1254      O1258   1.372       .  S
O1256      H1260   0.992       .  S
O1258      H1259   0.992       .  S
C1261      C1262   1.405   1_545  A
C1261      C1266   1.412       .  A
C1262      C1263   1.400       .  A
C1262      H1267   1.084       .  S
C1263      C1264   1.411   1_565  A
C1263      O1268   1.372       .  S
C1264      C1265   1.402       .  A
C1265      C1266   1.400       .  A
C1265      H1269   1.084       .  S
C1266      O1270   1.372       .  S
O1268      H1272   0.992       .  S
O1270      H1271   0.992       .  S
C1273      C1274   1.404       .  A
C1273      C1278   1.410       .  A
C1274      C1275   1.398       .  A
C1274      H1279   1.084       .  S
C1275      C1276   1.412       .  A
C1275      O1280   1.372       .  S
C1276      C1277   1.406       .  A
C1277      C1278   1.399       .  A
C1277      H1281   1.083       .  S
C1278      O1282   1.372       .  S
O1280      H1284   0.992       .  S
O1282      H1283   0.992       .  S
C1285      C1286   1.405       .  A
C1285      C1290   1.413       .  A
C1286      C1287   1.400       .  A
C1286      H1291   1.084       .  S
C1287      C1288   1.411       .  A
C1287      O1292   1.372       .  S
C1288      C1289   1.403       .  A
C1289      C1290   1.401       .  A
C1289      H1293   1.084       .  S
C1290      O1294   1.372       .  S
O1292      H1296   0.991       .  S
O1294      H1295   0.993       .  S
C1297      C1298   1.404       .  A
C1297      C1302   1.410       .  A
C1298      C1299   1.402       .  A
C1298      H1303   1.084       .  S
C1299      C1300   1.413       .  A
C1299      O1304   1.372       .  S
C1300      C1301   1.406       .  A
C1301      C1302   1.400       .  A
C1301      H1305   1.083       .  S
C1302      O1306   1.372       .  S
O1304      H1308   0.992       .  S
O1306      H1307   0.992       .  S
C1309      C1310   1.406       .  A
C1309      C1314   1.412       .  A
C1310      C1311   1.396       .  A
C1310      H1315   1.083       .  S
C1311      C1312   1.411       .  A
C1311      O1316   1.372       .  S
C1312      C1313   1.406       .  A
C1313      C1314   1.401       .  A
C1313      H1317   1.083       .  S
C1314      O1318   1.372       .  S
O1316      H1320   0.992       .  S
O1318      H1319   0.992       .  S
C1321      C1322   1.404       .  A
C1321      C1326   1.408       .  A
C1322      C1323   1.399       .  A
C1322      H1327   1.084       .  S
C1323      C1324   1.409       .  A
C1323      O1328   1.372       .  S
C1324      C1325   1.407       .  A
C1325      C1326   1.399       .  A
C1325      H1329   1.084       .  S
C1326      O1330   1.372       .  S
O1328      H1332   0.992       .  S
O1330      H1331   0.992       .  S
C1333      C1334   1.402       .  A
C1333      C1338   1.407       .  A
C1334      C1335   1.401       .  A
C1334      H1339   1.084       .  S
C1335      C1336   1.414       .  A
C1335      O1340   1.371       .  S
C1336      C1337   1.407       .  A
C1337      C1338   1.397       .  A
C1337      H1341   1.083       .  S
C1338      O1342   1.372       .  S
O1340      H1344   0.992       .  S
O1342      H1343   0.995       .  S
C1345      C1346   1.405       .  A
C1345      C1350   1.408       .  A
C1346      C1347   1.400       .  A
C1346      H1351   1.083       .  S
C1347      C1348   1.411       .  A
C1347      O1352   1.372       .  S
C1348      C1349   1.406       .  A
C1349      C1350   1.401       .  A
C1349      H1353   1.083       .  S
C1350      O1354   1.372       .  S
O1352      H1356   0.992       .  S
O1354      H1355   0.992       .  S
C1357      C1358   1.406       .  A
C1357      C1362   1.413       .  A
C1358      C1359   1.397   1_655  A
C1358      H1363   1.083       .  S
C1359      C1360   1.410       .  A
C1359      O1364   1.372       .  S
C1360      C1361   1.406       .  A
C1361      C1362   1.403   1_455  A
C1361      H1365   1.084       .  S
C1362      O1366   1.371       .  S
O1364      H1368   0.992       .  S
O1366      H1367   0.992       .  S
