geometry optimzed in LAMMPS
_audit_creation_date              2020-12-01 
_audit_creation_method            'lammps2cif' 
_symmetry_space_group_name_H-M    'P1' 
_symmetry_Int_Tables_number       1 
_symmetry_cell_setting            triclinic 
loop_ 
_symmetry_equiv_pos_as_xyz 
  x,y,z 
_cell_length_a                    43.09954261 
_cell_length_b                    42.90473286046304 
_cell_length_c                    62.22752146753926 
_cell_angle_alpha                 90.54732812406904 
_cell_angle_beta                  89.70347854654851 
_cell_angle_gamma                 119.77007598394155 
loop_ 
_atom_site_label 
_atom_site_type_symbol 
_atom_site_fract_x 
_atom_site_fract_y 
_atom_site_fract_z 
_atom_site_charge 
O1          O  0.02633864  0.44052817  0.24622029    -0.74900
O2          O  0.02430338  0.34997810  0.25649484    -0.75000
O3          O  0.02117476  0.38580299  0.22147248    -0.75000
O4          O  0.03458064  0.40794600  0.28068459    -0.75100
O5          O  0.47604833  0.38091587  0.28675895    -0.75000
O6          O  0.46199491  0.35912115  0.22488338    -0.75000
O7          O  0.46543682  0.32413138  0.26043844    -0.74900
O8          O  0.46730065  0.41171031  0.25124360    -0.75000
Ni9        Ni  0.02865551  0.39686708  0.25107431     1.25400
Ni10       Ni  0.46556404  0.36778546  0.25605609     1.25400
C11         C  0.99633115  0.44032868  0.24731433     0.87300
C12         C  0.99366186  0.32168686  0.25982243     0.87200
C13         C  0.49025663  0.37065039  0.21301787     0.87200
C14         C  0.00866254  0.39945708  0.29358734     0.87400
O15         O  0.02010315  0.44106882  0.42473592    -0.74900
O16         O  0.11388850  0.44971726  0.41558943    -0.75000
O17         O  0.07510357  0.44976869  0.44976321    -0.75000
O18         O  0.05624467  0.43617939  0.39023971    -0.75100
O19         O  0.07932852  0.49485789  0.38493556    -0.75000
O20         O  0.09969664  0.50905727  0.44664790    -0.75000
O21         O  0.13659963  0.50846236  0.41118764    -0.74900
O22         O  0.04586663  0.50031568  0.42065274    -0.75000
Ni23       Ni  0.06554531  0.44210291  0.42011435     1.25400
Ni24       Ni  0.09133659  0.50528530  0.41561301     1.25400
C25         C  0.01825052  0.47018843  0.42444859     0.87300
C26         C  0.14111849  0.48137065  0.41275208     0.87200
C27         C  0.08970728  0.48087052  0.45828689     0.87200
C28         C  0.06333732  0.46220251  0.37772899     0.87400
O29         O  0.43396854  0.05436736  0.25103323    -0.74900
O30         O  0.43583329  0.14626583  0.25710338    -0.75000
O31         O  0.44448125  0.10911574  0.22467839    -0.75000
O32         O  0.41961200  0.08824711  0.28321100    -0.75100
O33         O  0.47637886  0.11028251  0.29258812    -0.75000
O34         O  0.50257225  0.13870070  0.23262943    -0.75000
O35         O  0.49232563  0.17038083  0.26798774    -0.74900
O36         O  0.49232310  0.08403346  0.25755299    -0.75000
Ni37       Ni  0.43132863  0.09865248  0.25378837     1.25400
Ni38       Ni  0.49291618  0.12707060  0.26313660     1.25400
C39         C  0.46396930  0.05482868  0.25349130     0.87300
C40         C  0.46581370  0.17394435  0.26265437     0.87200
C41         C  0.47691552  0.12703515  0.21876396     0.87200
C42         C  0.44267052  0.09196795  0.29720023     0.87400
O43         O  0.40687072  0.03105951  0.42412190    -0.74900
O44         O  0.31853742  0.03570499  0.41841252    -0.75000
O45         O  0.35313262  0.02350020  0.45067996    -0.75000
O46         O  0.37604711  0.04888542  0.39231719    -0.75100
O47         O  0.35144830  0.99167175  0.38243988    -0.75000
O48         O  0.31969139  0.46871743  0.44388991    -0.75000
O49         O  0.28963869  0.48236060  0.40922549    -0.74900
O50         O  0.37113608  0.47297627  0.41787213    -0.75000
Ni51       Ni  0.36455985  0.03696554  0.42165265     1.25400
Ni52       Ni  0.33051705  0.47714274  0.41320540     1.25400
C53         C  0.40453316  0.00003767  0.42126034     0.87300
C54         C  0.29014025  0.00664862  0.41237671     0.87200
C55         C  0.33407194  0.99091740  0.45625074     0.87200
C56         C  0.37152440  0.02540042  0.37814932     0.87400
O57         O  0.06925784  0.01836057  0.58301371    -0.74900
O58         O  0.16059091  0.01987838  0.58821001    -0.75000
O59         O  0.11626070  0.01344991  0.55570186    -0.75000
O60         O  0.11549224  0.03023768  0.61543464    -0.75100
O61         O  0.08424193  0.97154706  0.62199154    -0.75000
O62         O  0.09429138  0.45812582  0.56394071    -0.75000
O63         O  0.13799320  0.46862959  0.59788611    -0.74900
O64         O  0.05056480  0.46736068  0.59080517    -0.75000
Ni65       Ni  0.11661384  0.02267610  0.58545237     1.25400
Ni66       Ni  0.09363213  0.46720665  0.59466202     1.25400
C67         C  0.04046803  0.98746580  0.58442555     0.87300
C68         C  0.15933156  0.98965552  0.59192696     0.87200
C69         C  0.10243716  0.98177232  0.54804633     0.87200
C70         C  0.09854952  0.00453067  0.62847328     0.87400
O71         O  0.08407508  0.03408139  0.76087253    -0.74900
O72         O  0.17341418  0.12305505  0.75027230    -0.75000
O73         O  0.13168315  0.09062657  0.78503081    -0.75000
O74         O  0.12708703  0.06322045  0.72676029    -0.75100
O75         O  0.09756777  0.09116083  0.71777015    -0.75000
O76         O  0.09988797  0.11750434  0.77843081    -0.75000
O77         O  0.14141790  0.14944278  0.74331380    -0.74900
O78         O  0.05482467  0.06298544  0.75251073    -0.75000
Ni79       Ni  0.13032218  0.07694171  0.75596115     1.25400
Ni80       Ni  0.09752131  0.10643660  0.74767128     1.25400
C81         C  0.05461595  0.03447044  0.75809677     0.87300
C82         C  0.17170019  0.15144206  0.74555426     0.87200
C83         C  0.11557743  0.10690574  0.79175041     0.87200
C84         C  0.11091388  0.07096347  0.71258491     0.87400
O85         O  0.37475709  0.43821398  0.57980083    -0.74900
O86         O  0.28462897  0.43766544  0.58865165    -0.75000
O87         O  0.32900123  0.44925051  0.55535895    -0.75000
O88         O  0.32774795  0.42135593  0.61236574    -0.75100
O89         O  0.35858757  0.47731065  0.62382110    -0.75000
O90         O  0.35937260  0.50725472  0.56411480    -0.75000
O91         O  0.31621019  0.49479234  0.59888739    -0.74900
O92         O  0.40345092  0.49588416  0.58967601    -0.75000
Ni93       Ni  0.32793088  0.43466352  0.58374460     1.25400
Ni94       Ni  0.36031657  0.49591507  0.59459354     1.25400
C95         C  0.40404611  0.46791744  0.58348772     0.87300
C96         C  0.28615638  0.46730698  0.59463036     0.87200
C97         C  0.34454424  0.48193796  0.54983725     0.87200
C98         C  0.34388753  0.44320249  0.62755497     0.87400
O99         O  0.37678748  0.41936375  0.75527974    -0.74900
O100        O  0.28712192  0.32800101  0.74872165    -0.75000
O101        O  0.33104829  0.36608482  0.78154750    -0.75000
O102        O  0.33104032  0.38536143  0.72260168    -0.75100
O103        O  0.36390096  0.35988327  0.71468099    -0.75000
O104        O  0.36089052  0.33677742  0.77559883    -0.75000
O105        O  0.31974250  0.30233393  0.74065183    -0.74900
O106        O  0.40570237  0.38921691  0.74946192    -0.75000
Ni107      Ni  0.33016962  0.37551368  0.75219380     1.25400
Ni108      Ni  0.36336798  0.34580067  0.74473366     1.25400
C109        C  0.40629423  0.41860574  0.75321788     0.87300
C110        C  0.28948633  0.29965405  0.74447389     0.87200
C111        C  0.34630433  0.34942725  0.78859928     0.87200
C112        C  0.34940203  0.37876573  0.70917179     0.87400
O113        O  0.42489598  0.39044754  0.91471937    -0.74900
O114        O  0.33229896  0.30447943  0.92289908    -0.75000
O115        O  0.37065509  0.34472780  0.88899072    -0.75000
O116        O  0.38935781  0.34825499  0.94838986    -0.75100
O117        O  0.36465662  0.38232245  0.95484543    -0.75000
O118        O  0.34581504  0.37922369  0.89320173    -0.75000
O119        O  0.30846026  0.33944468  0.92750950    -0.74900
O120        O  0.39836632  0.42307958  0.92040323    -0.75000
Ni121      Ni  0.38005792  0.34566388  0.91861482     1.25400
Ni122      Ni  0.35323916  0.38205959  0.92427166     1.25400
C123        C  0.42625420  0.42110966  0.91625138     0.87300
C124        C  0.30457152  0.30809062  0.92588926     0.87200
C125        C  0.35645092  0.36184026  0.88102422     0.87200
C126        C  0.38172724  0.36651478  0.96140164     0.87400
O127        O  0.44988603  0.40521711  0.09090435    -0.74900
O128        O  0.43739335  0.30927679  0.08051659    -0.75000
O129        O  0.45393203  0.35448810  0.11476835    -0.75000
O130        O  0.42711088  0.35766082  0.05761519    -0.75100
O131        O  0.48351884  0.38345769  0.04635572    -0.75000
O132        O  0.51136427  0.37886599  0.10578296    -0.75000
O133        O  0.49403341  0.33630671  0.07043945    -0.74900
O134        O  0.50658499  0.42752935  0.08150443    -0.75000
Ni135      Ni  0.43997870  0.35570850  0.08628090     1.25400
Ni136      Ni  0.50079196  0.38229576  0.07556242     1.25400
C137        C  0.48147470  0.43247816  0.08787007     0.87300
C138        C  0.46500918  0.30753058  0.07389644     0.87200
C139        C  0.48628070  0.36613876  0.12007591     0.87200
C140        C  0.44985412  0.37104396  0.04253575     0.87400
O141        O  0.04226578  0.09146061  0.91720870    -0.74900
O142        O  0.12882443  0.18549078  0.92135921    -0.75000
O143        O  0.09450131  0.13640250  0.88994987    -0.75000
O144        O  0.07282695  0.14173059  0.94869635    -0.75100
O145        O  0.10141324  0.11296779  0.95872930    -0.75000
O146        O  0.12747434  0.11160484  0.89862635    -0.75000
O147        O  0.15766203  0.15754995  0.93235897    -0.74900
O148        O  0.07552990  0.06682953  0.92499493    -0.75000
Ni149      Ni  0.08355720  0.13991060  0.91909350     1.25400
Ni150      Ni  0.11674930  0.11154738  0.92913830     1.25400
C151        C  0.04543701  0.06340388  0.92015277     0.87300
C152        C  0.15817167  0.18616437  0.92652090     0.87200
C153        C  0.11397705  0.12308772  0.88437860     0.87200
C154        C  0.08131802  0.12660572  0.96325362     0.87400
O155        O  0.03184038  0.10730471  0.09423791    -0.74900
O156        O  0.02124388  0.19155535  0.08526175    -0.75000
O157        O  0.01765780  0.15057241  0.11917901    -0.75000
O158        O  0.04167663  0.15069183  0.06082197    -0.75100
O159        O  0.48532009  0.11529490  0.05132705    -0.75000
O160        O  0.45977242  0.11476329  0.11227506    -0.75000
O161        O  0.46454330  0.15449007  0.07666564    -0.74900
O162        O  0.47424170  0.07337660  0.08590254    -0.75000
Ni163      Ni  0.03012630  0.15148497  0.09007494     1.25400
Ni164      Ni  0.46887086  0.11343071  0.08122337     1.25400
C165        C  0.00370204  0.07621618  0.09155033     0.87300
C166        C  0.99000854  0.18621151  0.07983328     0.87200
C167        C  0.48578021  0.13173582  0.12578386     0.87200
C168        C  0.01895903  0.13244964  0.04638219     0.87400
C169        C  0.03164209  0.09882240  0.99082333    -0.02300
C170        C  0.06682088  0.12540922  0.98533847     0.07300
C171        C  0.08539125  0.15462038  0.99937913    -0.02500
C172        C  0.06886285  0.15825417  0.01821517    -0.02500
C173        C  0.03375572  0.13089198  0.02441159     0.07500
C174        C  0.01579290  0.10063656  0.01053435    -0.02700
Br175      Br  0.47034307  0.06018849  0.01857559    -0.01200
Br176      Br  0.00455855  0.06000595  0.97096242    -0.01300
Br177      Br  0.09522377  0.20263888  0.03431887    -0.01200
Br178      Br  0.13395298  0.19015012  0.99235498    -0.01200
C179        C  0.44095925  0.24069472  0.08093267    -0.02300
C180        C  0.46651283  0.27324947  0.07143264     0.07300
C181        C  0.49722378  0.27442491  0.06174031    -0.02500
C182        C  0.00563859  0.24706723  0.06542333    -0.02500
C183        C  0.48194470  0.21615477  0.07690648     0.07500
C184        C  0.44831003  0.21217301  0.08330865    -0.02700
Br185      Br  0.41122132  0.16778391  0.09546272    -0.01200
Br186      Br  0.39491108  0.23372206  0.08985844    -0.01300
Br187      Br  0.04880952  0.25112989  0.05320525    -0.01200
Br188      Br  0.02683648  0.31149470  0.04138738    -0.01200
C189        C  0.01971172  0.49911660  0.07984146    -0.02300
C190        C  0.49079878  0.47073513  0.09143785     0.07300
C191        C  0.47288497  0.47990412  0.10714872    -0.02500
C192        C  0.47688384  0.01408857  0.10615818    -0.02500
C193        C  0.50383819  0.04209857  0.09378625     0.07500
C194        C  0.02476626  0.03454320  0.07966921    -0.02700
Br195      Br  0.05949899  0.07218553  0.06142012    -0.01200
Br196      Br  0.04893150  0.49087010  0.05925512    -0.01300
Br197      Br  0.44531893  0.02286067  0.12423429    -0.01200
Br198      Br  0.43949464  0.44430563  0.12680900    -0.01200
C199        C  0.25771668  0.24474047  0.91455334    -0.02300
C200        C  0.26698893  0.27644359  0.92652336     0.07300
C201        C  0.23892937  0.27912742  0.93721064    -0.02500
C202        C  0.20291003  0.25104841  0.93576084    -0.02500
C203        C  0.19430671  0.21900780  0.92475962     0.07500
C204        C  0.22188966  0.21644599  0.91378382    -0.02700
Br205      Br  0.21043814  0.17455466  0.89630502    -0.01200
Br206      Br  0.29318827  0.23955032  0.89813794    -0.01300
Br207      Br  0.16523313  0.25636185  0.94904645    -0.01200
Br208      Br  0.24886610  0.31998713  0.95529876    -0.01200
C209        C  0.48753393  0.46418506  0.92919039    -0.02300
C210        C  0.45992616  0.45574303  0.91441074     0.07300
C211        C  0.46077326  0.48330526  0.90162719    -0.02500
C212        C  0.48845721  0.01647584  0.90219592    -0.02500
C213        C  0.01503571  0.02590457  0.91805554     0.07500
C214        C  0.01444150  0.99823044  0.93090122    -0.02700
Br215      Br  0.04789286  0.00872032  0.95428319    -0.01200
Br216      Br  0.98872684  0.42640543  0.94529761    -0.01300
Br217      Br  0.49023113  0.05196198  0.88257817    -0.01200
Br218      Br  0.42361484  0.47193398  0.88069025    -0.01200
C219        C  0.42162854  0.40213666  0.99243707    -0.02300
C220        C  0.39479555  0.36906925  0.98387726     0.07300
C221        C  0.38704656  0.33706104  0.99449262    -0.02500
C222        C  0.40678053  0.33784245  0.01272632    -0.02500
C223        C  0.43477372  0.37076102  0.02084994     0.07500
C224        C  0.44151549  0.40294960  0.01076687    -0.02700
Br225      Br  0.47679108  0.44834896  0.02257196    -0.01200
Br226      Br  0.43139998  0.44638905  0.97893353    -0.01300
Br227      Br  0.39527402  0.29318828  0.02655937    -0.01200
Br228      Br  0.34832980  0.29178537  0.98417481    -0.01200
C229        C  0.38197438  0.36438903  0.82241852    -0.02300
C230        C  0.34830079  0.34788534  0.81230605     0.07300
C231        C  0.31727058  0.33810387  0.82485369    -0.02500
C232        C  0.31996753  0.34484781  0.84720515    -0.02500
C233        C  0.35358728  0.36094309  0.85728467     0.07500
C234        C  0.38458177  0.37071913  0.84476903    -0.02700
Br235      Br  0.43124545  0.39449774  0.85807849    -0.01200
Br236      Br  0.42500394  0.38108305  0.80550005    -0.01300
Br237      Br  0.27754718  0.33125428  0.86413178    -0.01200
Br238      Br  0.27067889  0.31496686  0.81147889    -0.01200
C239        C  0.33056321  0.38852212  0.65094442    -0.02300
C240        C  0.34629572  0.42695060  0.64877329     0.07300
C241        C  0.36651632  0.44864399  0.66643907    -0.02500
C242        C  0.36971074  0.43267295  0.68553004    -0.02500
C243        C  0.35368590  0.39494654  0.68745756     0.07500
C244        C  0.33525172  0.37324670  0.66986973    -0.02700
Br245      Br  0.31520913  0.32185200  0.67236343    -0.01200
Br246      Br  0.30065836  0.35408269  0.62914109    -0.01300
Br247      Br  0.39675821  0.46300472  0.70934658    -0.01200
Br248      Br  0.40409454  0.99534508  0.65670560    -0.01200
C249        C  0.10635354  0.08573918  0.85154846    -0.02300
C250        C  0.11871876  0.11988772  0.86092854     0.07300
C251        C  0.12961394  0.14999487  0.84743408    -0.02500
C252        C  0.12786671  0.14590628  0.82482002    -0.02500
C253        C  0.11482952  0.11163614  0.81545482     0.07500
C254        C  0.10448480  0.08161042  0.82899810    -0.02700
Br255      Br  0.08608979  0.03397976  0.81687024     0.01200
Br256      Br  0.08929510  0.04394064  0.86958919    -0.01300
Br257      Br  0.14510622  0.18748021  0.80667116    -0.01200
Br258      Br  0.14771121  0.19722344  0.85994541    -0.01200
C259        C  0.45579439  0.97620372  0.77016599    -0.02300
C260        C  0.44251704  0.45105796  0.75450331     0.07300
C261        C  0.46974711  0.45359194  0.74038094    -0.02500
C262        C  0.00557851  0.48057710  0.74327124    -0.02500
C263        C  0.01900518  0.00192925  0.75971342     0.07500
C264        C  0.49210211  0.00273181  0.77263551    -0.02700
Br265      Br  0.00562189  0.04013416  0.79399633    -0.01200
Br266      Br  0.42057762  0.97574646  0.78964021    -0.01300
Br267      Br  0.04205530  0.48325541  0.72391863    -0.01200
Br268      Br  0.45835575  0.42172803  0.71576109    -0.01200
C269        C  0.20481280  0.21285857  0.72834939    -0.02300
C270        C  0.20413718  0.18809735  0.74366115     0.07300
C271        C  0.23170250  0.20067326  0.75912937    -0.02500
C272        C  0.25855560  0.23728478  0.75968811    -0.02500
C273        C  0.25817104  0.26230191  0.74509000     0.07500
C274        C  0.23126329  0.24969861  0.72930771    -0.02700
Br275      Br  0.23155773  0.28277648  0.70844890    -0.01200
Br276      Br  0.17079272  0.19611544  0.70498542    -0.01300
Br277      Br  0.29574868  0.25316437  0.78108811    -0.01200
Br278      Br  0.23233166  0.16841217  0.78036482    -0.01200
C279        C  0.45770470  0.99073890  0.56616529    -0.02300
C280        C  0.43982914  0.47116006  0.58230829     0.07300
C281        C  0.45210056  0.46061521  0.60020962    -0.02500
C282        C  0.48849883  0.47128567  0.60224372    -0.02500
C283        C  0.00368784  0.98223639  0.58344155     0.07500
C284        C  0.99383727  0.99934803  0.56782338    -0.02700
Br285      Br  0.02898994  0.03321619  0.54820745    -0.01200
Br286      Br  0.44483805  0.01605761  0.54577560    -0.01300
Br287      Br  0.00459829  0.45929294  0.62830324    -0.01200
Br288      Br  0.41948514  0.43366187  0.62296045    -0.01200
C289        C  0.22832546  0.45844936  0.57877940    -0.02300
C290        C  0.25391038  0.47200535  0.59548626     0.07300
C291        C  0.24714545  0.99461562  0.60768099    -0.02500
C292        C  0.22051772  0.00449149  0.60532254    -0.02500
C293        C  0.19136195  0.98484735  0.59150555     0.07500
C294        C  0.20104607  0.46757601  0.57792125    -0.02700
Br295      Br  0.16538481  0.44687745  0.55558746    -0.01200
Br296      Br  0.23129021  0.42893365  0.55609750    -0.01300
Br297      Br  0.22378911  0.04476842  0.62130497    -0.01200
Br298      Br  0.28304997  0.01885875  0.62967630    -0.01200
C299        C  0.13075366  0.04153582  0.68405051    -0.02300
C300        C  0.10699467  0.05411464  0.69056555     0.07300
C301        C  0.07771753  0.04629998  0.67688579    -0.02500
C302        C  0.07411636  0.02895451  0.65678901    -0.02500
C303        C  0.09668714  0.01497057  0.65115181     0.07500
C304        C  0.12388724  0.02005092  0.66540846    -0.02700
Br305      Br  0.14058229  0.48984363  0.66541694    -0.01200
Br306      Br  0.17535681  0.05611790  0.69884705    -0.01300
Br307      Br  0.03888584  0.02563998  0.63655884    -0.01200
Br308      Br  0.04125419  0.05758428  0.68545435    -0.01200
C309        C  0.35143445  0.46642247  0.51188383    -0.02300
C310        C  0.34455932  0.48816706  0.52632148     0.07300
C311        C  0.33191092  0.51025112  0.51804906    -0.02500
C312        C  0.32650133  0.51080581  0.49567645    -0.02500
C313        C  0.33279400  0.48855170  0.48136233     0.07500
C314        C  0.34543516  0.46652518  0.48966834    -0.02700
Br315      Br  0.36032390  0.93777868  0.46997774    -0.01200
Br316      Br  0.37019514  0.43660016  0.52219553    -0.01300
Br317      Br  0.31011442  0.54212507  0.48473629    -0.01200
Br318      Br  0.32008691  0.53825630  0.53738319    -0.01200
C319        C  0.44399938  0.08747761  0.33816630    -0.02300
C320        C  0.42824135  0.07250627  0.31816289     0.07300
C321        C  0.39650879  0.03823675  0.31807307    -0.02500
C322        C  0.37798275  0.02231323  0.33736618    -0.02500
C323        C  0.39202132  0.03902882  0.35734833     0.07500
C324        C  0.42669625  0.07028766  0.35752891    -0.02700
Br325      Br  0.45263765  0.08866525  0.38419461    -0.01200
Br326      Br  0.48889693  0.13199201  0.33932692    -0.01300
Br327      Br  0.33289801  0.97800593  0.33601043    -0.01200
Br328      Br  0.37919217  0.01104339  0.29160935    -0.01200
C329        C  0.46772210  0.14914734  0.18353005    -0.02300
C330        C  0.48317043  0.13223983  0.19529895     0.07300
C331        C  0.49816723  0.11425298  0.18414266    -0.02500
C332        C  0.99807223  0.11345957  0.16146758    -0.02500
C333        C  0.48127259  0.12904985  0.14958285     0.07500
C334        C  0.46734821  0.14806800  0.16082228    -0.02700
Br335      Br  0.45111162  0.17573680  0.14526368    -0.01200
Br336      Br  0.44717526  0.17416129  0.19858394    -0.01300
Br337      Br  0.02307039  0.09247409  0.14700320    -0.01200
Br338      Br  0.01651367  0.08831231  0.19993983    -0.01200
C339        C  0.13049511  0.00162493  0.48949715    -0.02300
C340        C  0.09445371  0.48255192  0.48197125     0.07300
C341        C  0.06550858  0.45872603  0.49516407    -0.02500
C342        C  0.07041675  0.45664519  0.51738336    -0.02500
C343        C  0.10428675  0.47842300  0.52673033     0.07500
C344        C  0.13248128  0.99800603  0.51194253    -0.02700
Br345      Br  0.17857166  0.01898499  0.52577877    -0.01200
Br346      Br  0.17360106  0.02616346  0.47261993    -0.01300
Br347      Br  0.02992006  0.42546537  0.53508555    -0.01200
Br348      Br  0.01815592  0.42996078  0.48315205    -0.01200
C349        C  0.22731615  0.48368120  0.43036817    -0.02300
C350        C  0.25353664  0.00239733  0.41274810     0.07300
C351        C  0.24225774  0.01740990  0.39667422    -0.02500
C352        C  0.20563378  0.00723530  0.39475507    -0.02500
C353        C  0.17894898  0.48823838  0.41263261     0.07500
C354        C  0.19093597  0.47436856  0.42913015    -0.02700
Br355      Br  0.15815595  0.44416674  0.45109101    -0.01200
Br356      Br  0.24218088  0.46337878  0.45288051    -0.01300
Br357      Br  0.19097613  0.02595702  0.37118430    -0.01200
Br358      Br  0.27703533  0.05097760  0.37681568    -0.01200
C359        C  0.99057007  0.00196803  0.43841683    -0.02300
C360        C  0.98440830  0.47090347  0.42751360     0.07300
C361        C  0.45664600  0.45336160  0.41254876    -0.02500
C362        C  0.43159757  0.46502070  0.40962939    -0.02500
C363        C  0.43555844  0.99368123  0.42204622     0.07500
C364        C  0.46249149  0.00997496  0.43777166    -0.02700
Br365      Br  0.96037623  0.04188128  0.45903573    -0.01200
Br366      Br  0.02988603  0.02835567  0.45800926    -0.01300
Br367      Br  0.39925949  0.44542940  0.38541915    -0.01200
Br368      Br  0.45327673  0.41362718  0.39579605    -0.01200
C369        C  0.46191722  0.25914262  0.27572753    -0.02300
C370        C  0.48912196  0.28484700  0.26210802     0.07300
C371        C  0.00831469  0.27342726  0.24882957    -0.02500
C372        C  0.00043551  0.23729235  0.24909229    -0.02500
C373        C  0.47209579  0.21141858  0.26184258     0.07500
C374        C  0.45318427  0.22267528  0.27528396    -0.02700
Br375      Br  0.41662860  0.18826981  0.29402258    -0.01200
Br376      Br  0.43720088  0.27356983  0.29601774    -0.01300
Br377      Br  0.02875351  0.22355538  0.23141624    -0.01200
Br378      Br  0.04396430  0.30630972  0.22896093    -0.01200
C379        C  0.00683842  0.99707840  0.26054653    -0.02300
C380        C  0.49350303  0.47307787  0.24596350     0.07300
C381        C  0.46852466  0.47402785  0.23164908    -0.02500
C382        C  0.45725437  0.49958654  0.23451708    -0.02500
C383        C  0.46843301  0.02261323  0.25201451     0.07500
C384        C  0.49526423  0.02186782  0.26490172    -0.02700
Br385      Br  0.01428897  0.05225550  0.29012651    -0.01200
Br386      Br  0.04702204  0.00024952  0.27618195    -0.01300
Br387      Br  0.42706551  0.50380988  0.21333184    -0.01200
Br388      Br  0.44956762  0.44003900  0.20812847    -0.01200
C389        C  0.00666139  0.43429909  0.32662329    -0.02300
C390        C  0.01906496  0.41296774  0.31625747     0.07300
C391        C  0.04824750  0.41141816  0.32554840    -0.02500
C392        C  0.06528195  0.43145781  0.34418323    -0.02500
C393        C  0.05257233  0.45206064  0.35480231     0.07500
C394        C  0.02349070  0.45388243  0.34571907    -0.02700
Br395      Br  0.50719827  0.48373893  0.35927301    -0.01200
Br396      Br  0.46701313  0.43723290  0.31465196    -0.01300
Br397      Br  0.10730442  0.43164889  0.35510962    -0.01200
Br398      Br  0.06433651  0.38022002  0.31337660    -0.01200
C399        C  0.47086141  0.33555877  0.17810526    -0.02300
C400        C  0.48903317  0.36869429  0.18908360     0.07300
C401        C  0.01029418  0.40038945  0.17714214    -0.02500
C402        C  0.01218416  0.39908207  0.15453397    -0.02500
C403        C  0.49302696  0.36615024  0.14347758     0.07500
C404        C  0.47273629  0.33431188  0.15543257    -0.02700
Br405      Br  0.44739389  0.28870931  0.14062134    -0.01200
Br406      Br  0.44457459  0.29178861  0.19417805    -0.01300
Br407      Br  0.03876312  0.44302179  0.13855551    -0.01200
Br408      Br  0.03583672  0.44650948  0.19148548    -0.01200
O409        O  0.02172683  0.93728407  0.24563193    -0.74900
O410        O  0.02143594  0.84754474  0.25510197    -0.75000
O411        O  0.01765223  0.88375482  0.22041115    -0.75000
O412        O  0.03039738  0.90412382  0.27979747    -0.75100
O413        O  0.47169021  0.87614352  0.28565649    -0.75000
O414        O  0.45841290  0.85625280  0.22375946    -0.75000
O415        O  0.46246066  0.82073610  0.25889699    -0.74900
O416        O  0.46278524  0.90782205  0.25073078    -0.75000
Ni417      Ni  0.02487307  0.89403774  0.25007627     1.25400
Ni418      Ni  0.46169809  0.86401733  0.25494979     1.25400
C419        C  0.99155682  0.93673467  0.24684276     0.87300
C420        C  0.99105583  0.81900968  0.25846586     0.87200
C421        C  0.48680902  0.86850520  0.21199354     0.87200
C422        C  0.00411294  0.89465228  0.29254010     0.87400
O423        O  0.02356848  0.94294998  0.42341308    -0.74900
O424        O  0.11467085  0.94614208  0.41367219    -0.75000
O425        O  0.07877899  0.95142092  0.44794541    -0.75000
O426        O  0.05625599  0.93224758  0.38923860    -0.75100
O427        O  0.08168886  0.99039609  0.38158078    -0.75000
O428        O  0.10473379  0.01049214  0.44293447    -0.75000
O429        O  0.13925676  0.00466670  0.40759905    -0.74900
O430        O  0.05103114  0.00164945  0.41679477    -0.75000
Ni431      Ni  0.06750541  0.94113585  0.41868853     1.25400
Ni432      Ni  0.09526869  0.00392249  0.41189922     1.25400
C433        C  0.02304408  0.97268201  0.42186302     0.87300
C434        C  0.14249609  0.97694956  0.40982632     0.87200
C435        C  0.09400422  0.98318235  0.45548636     0.87200
C436        C  0.06395340  0.95701947  0.37567633     0.87400
O437        O  0.43363975  0.55318590  0.25163637    -0.74900
O438        O  0.43437109  0.64436448  0.25802545    -0.75000
O439        O  0.44442156  0.60811935  0.22576928    -0.75000
O440        O  0.41802443  0.58598874  0.28392933    -0.75100
O441        O  0.47470478  0.60922571  0.29393367    -0.75000
O442        O  0.50227395  0.63778034  0.23426305    -0.75000
O443        O  0.49080464  0.66906385  0.26917607    -0.74900
O444        O  0.49172715  0.58308775  0.25933377    -0.75000
Ni445      Ni  0.43046260  0.59704772  0.25463616     1.25400
Ni446      Ni  0.49187112  0.62597689  0.26464757     1.25400
C447        C  0.46370629  0.55400131  0.25449411     0.87300
C448        C  0.46419535  0.67224200  0.26355464     0.87200
C449        C  0.47698216  0.62634314  0.22017183     0.87200
C450        C  0.44093193  0.59043096  0.29821760     0.87400
O451        O  0.40508617  0.53137087  0.42446526    -0.74900
O452        O  0.31826828  0.53944817  0.42010797    -0.75000
O453        O  0.35369837  0.52683917  0.45173282    -0.75000
O454        O  0.37379793  0.54994983  0.39309504    -0.75100
O455        O  0.34759416  0.49249886  0.38364395    -0.75000
O456        O  0.32093284  0.96549069  0.44201228    -0.75000
O457        O  0.29193263  0.97892362  0.40694007    -0.74900
O458        O  0.37462392  0.97263914  0.41710032    -0.75000
Ni459      Ni  0.36368156  0.53906736  0.42256114     1.25400
Ni460      Ni  0.33338302  0.97521040  0.41166164     1.25400
C461        C  0.40155901  0.49975906  0.42189090     0.87300
C462        C  0.28904788  0.51077406  0.41459282     0.87200
C463        C  0.33448773  0.49459971  0.45779938     0.87200
C464        C  0.36845256  0.52601355  0.37910146     0.87400
O465        O  0.07831751  0.52585052  0.58365377    -0.74900
O466        O  0.16900990  0.52638562  0.58892148    -0.75000
O467        O  0.12267908  0.51662087  0.55680812    -0.75000
O468        O  0.12593017  0.54056227  0.61563373    -0.75100
O469        O  0.09484294  0.48279072  0.62449417    -0.75000
O470        O  0.08855753  0.95423484  0.56052670    -0.75000
O471        O  0.12958801  0.96145689  0.59538197    -0.74900
O472        O  0.04229548  0.95919352  0.58717336    -0.75000
Ni473      Ni  0.12526344  0.52948264  0.58603825     1.25400
Ni474      Ni  0.08534099  0.95957732  0.59154790     1.25400
C475        C  0.04934503  0.49563253  0.58658168     0.87300
C476        C  0.16767432  0.49644049  0.59357250     0.87200
C477        C  0.10756657  0.48415168  0.55037261     0.87200
C478        C  0.10906610  0.51639313  0.62959118     0.87400
O479        O  0.07957145  0.53980405  0.76157072    -0.74900
O480        O  0.16896345  0.63002681  0.75424344    -0.75000
O481        O  0.12434216  0.59522291  0.78731140    -0.75000
O482        O  0.12648388  0.57198636  0.72922433    -0.75100
O483        O  0.09514825  0.59715465  0.71920790    -0.75000
O484        O  0.09356755  0.62288621  0.77981895    -0.75000
O485        O  0.13681581  0.65549417  0.74539349    -0.74900
O486        O  0.05016491  0.56849317  0.75311511    -0.75000
Ni487      Ni  0.12598094  0.58341834  0.75836467     1.25400
Ni488      Ni  0.09297666  0.61218227  0.74901045     1.25400
C489        C  0.05002404  0.53991570  0.75841751     0.87300
C490        C  0.16707149  0.65800969  0.74881113     0.87200
C491        C  0.10826576  0.61172662  0.79352826     0.87200
C492        C  0.11061114  0.57868076  0.71446430     0.87400
O493        O  0.36624503  0.93191134  0.57768114    -0.74900
O494        O  0.27710272  0.93159865  0.58892388    -0.75000
O495        O  0.31927707  0.94226693  0.55433260    -0.75000
O496        O  0.32252926  0.91647618  0.61160494    -0.75100
O497        O  0.35172469  0.97321955  0.62231396    -0.75000
O498        O  0.35146793  0.00053313  0.56236201    -0.75000
O499        O  0.30903055  0.98950951  0.59707613    -0.74900
O500        O  0.39559510  0.98947654  0.58781981    -0.75000
Ni501      Ni  0.32006378  0.92853911  0.58287418     1.25400
Ni502      Ni  0.35288235  0.99025871  0.59283350     1.25400
C503        C  0.39568753  0.96143107  0.58119557     0.87300
C504        C  0.27875863  0.96163559  0.59400914     0.87200
C505        C  0.33566953  0.97485622  0.54845501     0.87200
C506        C  0.33822963  0.93941559  0.62648318     0.87400
O507        O  0.38009412  0.92219400  0.75430561    -0.74900
O508        O  0.28703053  0.83408830  0.74943482    -0.75000
O509        O  0.33314361  0.87119253  0.78145890    -0.75000
O510        O  0.33230939  0.88911069  0.72217569    -0.75100
O511        O  0.36137090  0.85969906  0.71409591    -0.75000
O512        O  0.35955574  0.83859070  0.77523319    -0.75000
O513        O  0.31618220  0.80483588  0.74119385    -0.74900
O514        O  0.40538862  0.88869539  0.74822787    -0.75000
Ni515      Ni  0.33197582  0.88016817  0.75197349     1.25400
Ni516      Ni  0.36136651  0.84669111  0.74431413     1.25400
C517        C  0.40832183  0.91911451  0.75212003     0.87300
C518        C  0.28713379  0.80444524  0.74555678     0.87200
C519        C  0.34653402  0.85267134  0.78834883     0.87200
C520        C  0.34823068  0.87973225  0.70849211     0.87400
O521        O  0.42606872  0.88820996  0.91310225    -0.74900
O522        O  0.33528405  0.80148000  0.92329038    -0.75000
O523        O  0.37068908  0.84110261  0.88854550    -0.75000
O524        O  0.39340641  0.84673288  0.94728992    -0.75100
O525        O  0.36765685  0.87952876  0.95467849    -0.75000
O526        O  0.34525122  0.87492608  0.89353506    -0.75000
O527        O  0.31052157  0.83563309  0.92871901    -0.74900
O528        O  0.39892681  0.92004032  0.91970511    -0.75000
Ni529      Ni  0.38212868  0.84309191  0.91787774     1.25400
Ni530      Ni  0.35447366  0.87856676  0.92443680     1.25400
C531        C  0.42689669  0.91857193  0.91496337     0.87300
C532        C  0.30753592  0.80464388  0.92721472     0.87200
C533        C  0.35577686  0.85782339  0.88101844     0.87200
C534        C  0.38564917  0.86439142  0.96067778     0.87400
O535        O  0.45156132  0.90513871  0.08905258    -0.74900
O536        O  0.44137920  0.81026206  0.07965234    -0.75000
O537        O  0.45593167  0.85536587  0.11364357    -0.75000
O538        O  0.43147970  0.85795240  0.05594331    -0.75100
O539        O  0.48861257  0.88500357  0.04584897    -0.75000
O540        O  0.51387912  0.88062056  0.10565568    -0.75000
O541        O  0.49850152  0.83787055  0.07051983    -0.74900
O542        O  0.50901177  0.92881998  0.08092936    -0.75000
Ni543      Ni  0.44300074  0.85619994  0.08488113     1.25400
Ni544      Ni  0.50447953  0.88385874  0.07531122     1.25400
C545        C  0.48291173  0.93286951  0.08640880     0.87300
C546        C  0.46948979  0.80888633  0.07371218     0.87200
C547        C  0.48814048  0.86748946  0.11946798     0.87200
C548        C  0.45514406  0.87226986  0.04143256     0.87400
O549        O  0.04394728  0.59384886  0.91980225    -0.74900
O550        O  0.13245296  0.68597243  0.92538297    -0.75000
O551        O  0.09610465  0.64007988  0.89293917    -0.75000
O552        O  0.07660300  0.64138596  0.95220295    -0.75100
O553        O  0.10439940  0.61092461  0.96024348    -0.75000
O554        O  0.12705273  0.61217118  0.89927890    -0.75000
O555        O  0.16009638  0.65549837  0.93371979    -0.74900
O556        O  0.07582533  0.56702686  0.92588873    -0.75000
Ni557      Ni  0.08632120  0.64154810  0.92243347     1.25400
Ni558      Ni  0.11808767  0.61064385  0.93014639     1.25400
C559        C  0.04605362  0.56501394  0.92192884     0.87300
C560        C  0.16135025  0.68504974  0.92951233     0.87200
C561        C  0.11384451  0.62559338  0.88609906     0.87200
C562        C  0.08493656  0.62482595  0.96582813     0.87400
O563        O  0.03548225  0.60859192  0.09663095    -0.74900
O564        O  0.02438393  0.69240235  0.08724441    -0.75000
O565        O  0.01997704  0.65121896  0.12115177    -0.75000
O566        O  0.04556621  0.65219253  0.06318006    -0.75100
O567        O  0.48995385  0.61529597  0.05343947    -0.75000
O568        O  0.46230403  0.61550254  0.11371093    -0.75000
O569        O  0.46826507  0.65513986  0.07768271    -0.74900
O570        O  0.47790848  0.57422317  0.08835023    -0.75000
Ni571      Ni  0.03334824  0.65255858  0.09227231     1.25400
Ni572      Ni  0.47249239  0.61404613  0.08293074     1.25400
C573        C  0.00743659  0.57736529  0.09417307     0.87300
C574        C  0.99343162  0.68693238  0.08111697     0.87200
C575        C  0.48797500  0.63207926  0.12744944     0.87200
C576        C  0.02363960  0.63269307  0.04876514     0.87400
C577        C  0.03305701  0.60213005  0.99141079    -0.02300
C578        C  0.07036227  0.62194266  0.98797833     0.07300
C579        C  0.09228830  0.64474635  0.00430474    -0.02500
C580        C  0.07727448  0.64964557  0.02346466    -0.02500
C581        C  0.03924099  0.62975358  0.02726125     0.07500
C582        C  0.01756884  0.60539515  0.01086278    -0.02700
Br583      Br  0.46634215  0.57621953  0.01401582    -0.01200
Br584      Br  0.00281455  0.57000531  0.96908737    -0.01300
Br585      Br  0.11108254  0.68583701  0.04314995    -0.01200
Br586      Br  0.14344820  0.67034040  0.99971062    -0.01200
C587        C  0.44497708  0.74198653  0.08103195    -0.02300
C588        C  0.47104332  0.77456801  0.07177642     0.07300
C589        C  0.50206025  0.77564203  0.06268125    -0.02500
C590        C  0.01026100  0.74827381  0.06686753    -0.02500
C591        C  0.48566863  0.71700192  0.07775352     0.07500
C592        C  0.45173995  0.71306346  0.08333598    -0.02700
Br593      Br  0.41341509  0.66817957  0.09410103    -0.01200
Br594      Br  0.39909443  0.73551208  0.09001919    -0.01300
Br595      Br  0.05475290  0.75311665  0.05633124    -0.01200
Br596      Br  0.03185163  0.81214943  0.04213039    -0.01200
C597        C  0.01821720  0.99911069  0.07729772    -0.02300
C598        C  0.49045549  0.97058000  0.08936966     0.07300
C599        C  0.47135082  0.97893277  0.10465611    -0.02500
C600        C  0.48048283  0.51573694  0.10933684    -0.02500
C601        C  0.50754441  0.54327578  0.09680154     0.07500
C602        C  0.02775878  0.53498948  0.08259753    -0.02700
Br603      Br  0.06398196  0.57253404  0.06495522    -0.01200
Br604      Br  0.04741147  0.99131096  0.05647583    -0.01300
Br605      Br  0.45208653  0.52666888  0.12885560    -0.01200
Br606      Br  0.43916625  0.94320461  0.12472053    -0.01200
C607        C  0.25934710  0.74362663  0.91451955    -0.02300
C608        C  0.27074301  0.77283040  0.92898146     0.07300
C609        C  0.24522008  0.77362543  0.94326041    -0.02500
C610        C  0.20887583  0.74634327  0.94251486    -0.02500
C611        C  0.19776248  0.71717276  0.92819921     0.07500
C612        C  0.22337912  0.71585498  0.91439226    -0.02700
Br613      Br  0.20937511  0.67603536  0.89466079    -0.01200
Br614      Br  0.29215771  0.74194825  0.89382262    -0.01300
Br615      Br  0.17449799  0.74810882  0.96171204    -0.01200
Br616      Br  0.25997144  0.81079303  0.96500124    -0.01200
C617        C  0.48785870  0.96216826  0.92783806    -0.02300
C618        C  0.46022102  0.95336884  0.91302854     0.07300
C619        C  0.46074235  0.98055468  0.90008883    -0.02500
C620        C  0.48864955  0.51913121  0.90393640    -0.02500
C621        C  0.01482113  0.52806352  0.91999153     0.07500
C622        C  0.01367031  0.50018901  0.93283499    -0.02700
Br623      Br  0.04558482  0.51074592  0.95705472    -0.01200
Br624      Br  0.98788061  0.92494037  0.94512660    -0.01300
Br625      Br  0.49129757  0.55521144  0.88450339    -0.01200
Br626      Br  0.42305371  0.96856316  0.87941813    -0.01200
C627        C  0.42145364  0.90063753  0.99295339    -0.02300
C628        C  0.39968519  0.86704292  0.98287384     0.07300
C629        C  0.39779686  0.83598593  0.99190298    -0.02500
C630        C  0.41925763  0.83873941  0.00961040    -0.02500
C631        C  0.44135072  0.87223131  0.01957748     0.07500
C632        C  0.44125904  0.90295505  0.01160753    -0.02700
Br633      Br  0.46627391  0.94778510  0.02699651    -0.01200
Br634      Br  0.42518035  0.94370568  0.98099504    -0.01300
Br635      Br  0.41790870  0.79611076  0.02063806    -0.01200
Br636      Br  0.36427649  0.78896206  0.98058933    -0.01200
C637        C  0.38161521  0.86541827  0.82218586    -0.02300
C638        C  0.34809328  0.85000901  0.81198585     0.07300
C639        C  0.31684400  0.83868647  0.82460354    -0.02500
C640        C  0.31913676  0.84162183  0.84722414    -0.02500
C641        C  0.35273547  0.85765115  0.85732790     0.07500
C642        C  0.38395236  0.86932101  0.84469655    -0.02700
Br643      Br  0.43053581  0.89172203  0.85809074    -0.01200
Br644      Br  0.42482320  0.88420397  0.80522597    -0.01300
Br645      Br  0.27624019  0.82160856  0.86445907    -0.01200
Br646      Br  0.27064951  0.81952216  0.81104935    -0.01200
C647        C  0.31914237  0.88760572  0.65274691    -0.02300
C648        C  0.34151912  0.92493120  0.64799187     0.07300
C649        C  0.36921532  0.94603728  0.66280066    -0.02500
C650        C  0.37241874  0.93088862  0.68226021    -0.02500
C651        C  0.35101367  0.89368739  0.68625816     0.07500
C652        C  0.32591121  0.87205971  0.67076306    -0.02700
Br653      Br  0.30062160  0.82071934  0.67449271    -0.01200
Br654      Br  0.27634525  0.85684871  0.63640908    -0.01300
Br655      Br  0.40625926  0.96147790  0.70371040    -0.01200
Br656      Br  0.39001592  0.50046520  0.66544537    -0.01200
C657        C  0.09916934  0.58856302  0.85265973    -0.02300
C658        C  0.11612461  0.62274950  0.86244521     0.07300
C659        C  0.12843978  0.65364733  0.84946535    -0.02500
C660        C  0.12418111  0.65030131  0.82689334    -0.02500
C661        C  0.10695291  0.61604390  0.81715247     0.07500
C662        C  0.09464356  0.58520778  0.83021012    -0.02700
Br663      Br  0.07110194  0.53769448  0.81746761     0.01200
Br664      Br  0.08003128  0.54592581  0.87011927    -0.01300
Br665      Br  0.14387592  0.69259183  0.80921579    -0.01200
Br666      Br  0.15201938  0.70080134  0.86256441    -0.01200
C667        C  0.45163258  0.47717172  0.77083214    -0.02300
C668        C  0.44565918  0.94978962  0.75387682     0.07300
C669        C  0.47273326  0.94971786  0.74067183    -0.02500
C670        C  0.00917976  0.97466071  0.74420896    -0.02500
C671        C  0.01455285  0.50694319  0.75930804     0.07500
C672        C  0.48719806  0.50574701  0.77267925    -0.02700
Br673      Br  0.99821111  0.54362125  0.79332387    -0.01200
Br674      Br  0.41606507  0.47321808  0.79128905    -0.01300
Br675      Br  0.04555138  0.97280243  0.72681799    -0.01200
Br676      Br  0.46078684  0.91750279  0.71618815    -0.01200
C677        C  0.20098419  0.71863360  0.73098537    -0.02300
C678        C  0.19929377  0.69463700  0.74713987     0.07300
C679        C  0.22592255  0.70771530  0.76317658    -0.02500
C680        C  0.25405812  0.74369162  0.76272012    -0.02500
C681        C  0.25461975  0.76815826  0.74731324     0.07500
C682        C  0.22754562  0.75537915  0.73164373    -0.02700
Br683      Br  0.22738822  0.78800918  0.71068702    -0.01200
Br684      Br  0.16861291  0.70083707  0.70679533    -0.01300
Br685      Br  0.29216844  0.75892964  0.78339620    -0.01200
Br686      Br  0.22324944  0.67725340  0.78663998    -0.01200
C687        C  0.46473538  0.49315273  0.56655304    -0.02300
C688        C  0.43102188  0.96407482  0.57930547     0.07300
C689        C  0.44051572  0.94626337  0.59444208    -0.02500
C690        C  0.47642661  0.95527690  0.59678370    -0.02500
C691        C  0.01307332  0.49144030  0.58589096     0.07500
C692        C  0.00100040  0.50225584  0.56796925    -0.02700
Br693      Br  0.03364802  0.52828659  0.54498758    -0.01200
Br694      Br  0.44951979  0.51209800  0.54348359    -0.01300
Br695      Br  0.98833196  0.93303444  0.61980462    -0.01200
Br696      Br  0.40449951  0.91142137  0.61338495    -0.01200
C697        C  0.21706916  0.94681018  0.58103837    -0.02300
C698        C  0.24639020  0.96630214  0.59504262     0.07300
C699        C  0.25157655  0.49508664  0.61120436    -0.02500
C700        C  0.22514367  0.50540728  0.60968508    -0.02500
C701        C  0.19966931  0.49167473  0.59308693     0.07500
C702        C  0.18986457  0.95593356  0.57939724    -0.02700
Br703      Br  0.15101733  0.92933981  0.55941509    -0.01200
Br704      Br  0.21372657  0.90798838  0.56328189    -0.01300
Br705      Br  0.22291732  0.53747163  0.63077597    -0.01200
Br706      Br  0.28318279  0.51124815  0.63577428    -0.01200
C707        C  0.12510862  0.53977298  0.68908126    -0.02300
C708        C  0.10985595  0.56275896  0.69233698     0.07300
C709        C  0.09294028  0.56839630  0.67443301    -0.02500
C710        C  0.09173921  0.55219850  0.65424989    -0.02500
C711        C  0.10597677  0.52891891  0.65155637     0.07500
C712        C  0.12176837  0.52220471  0.66916093    -0.02700
Br713      Br  0.15237576  0.99790524  0.65886571    -0.01200
Br714      Br  0.15313848  0.53218472  0.71061730    -0.01300
Br715      Br  0.06990596  0.56180554  0.63002733    -0.01200
Br716      Br  0.07200604  0.59908452  0.67650895    -0.01200
C717        C  0.34691079  0.96147899  0.51098695    -0.02300
C718        C  0.33654294  0.98099048  0.52495963     0.07300
C719        C  0.32263155  0.00162605  0.51618030    -0.02500
C720        C  0.32010014  0.00358567  0.49363813    -0.02500
C721        C  0.33020452  0.98377389  0.47969434     0.07500
C722        C  0.34358069  0.96272425  0.48856284    -0.02700
Br723      Br  0.35744631  0.43837135  0.47046418    -0.01200
Br724      Br  0.36710929  0.93364254  0.52238424    -0.01300
Br725      Br  0.30260471  0.03352090  0.48198627    -0.01200
Br726      Br  0.30513874  0.02546028  0.53504713    -0.01200
C727        C  0.44133283  0.58742368  0.33917732    -0.02300
C728        C  0.42637963  0.57145765  0.31923564     0.07300
C729        C  0.39531611  0.53675062  0.31924299    -0.02500
C730        C  0.37614844  0.52138770  0.33845536    -0.02500
C731        C  0.38929035  0.53903681  0.35834646     0.07500
C732        C  0.42378298  0.57064858  0.35853649    -0.02700
Br733      Br  0.44945746  0.59016099  0.38518674    -0.01200
Br734      Br  0.48549642  0.63271723  0.34023268    -0.01300
Br735      Br  0.33160925  0.47657575  0.33703059    -0.01200
Br736      Br  0.38027909  0.50831212  0.29311695    -0.01200
C737        C  0.46388130  0.64424070  0.18469426    -0.02300
C738        C  0.48371612  0.63234263  0.19679877     0.07300
C739        C  0.50383828  0.61942437  0.18600697    -0.02500
C740        C  0.00386342  0.61807234  0.16335764    -0.02500
C741        C  0.48298879  0.62877022  0.15116934     0.07500
C742        C  0.46328546  0.64213861  0.16204454    -0.02700
Br743      Br  0.43696733  0.65940646  0.14605072    -0.01200
Br744      Br  0.43825161  0.66468233  0.19917116    -0.01300
Br745      Br  0.03285949  0.60111358  0.14932787    -0.01200
Br746      Br  0.02968967  0.60144159  0.20221726    -0.01200
C747        C  0.12852564  0.50344436  0.49118724    -0.02300
C748        C  0.09697559  0.98608442  0.47925278     0.07300
C749        C  0.06553366  0.96631787  0.49164024    -0.02500
C750        C  0.06753638  0.96264958  0.51396756    -0.02500
C751        C  0.10096450  0.97850122  0.52428481     0.07500
C752        C  0.13350835  0.50112586  0.51337641    -0.02700
Br753      Br  0.18098537  0.52868166  0.52535395    -0.01200
Br754      Br  0.16876633  0.53445765  0.47334475    -0.01300
Br755      Br  0.02409555  0.93756518  0.53059810    -0.01200
Br756      Br  0.01903898  0.94414179  0.47813676    -0.01200
C757        C  0.22765616  0.97722265  0.42699634    -0.02300
C758        C  0.25284317  0.50774068  0.41552964     0.07300
C759        C  0.24129070  0.52268455  0.39953006    -0.02500
C760        C  0.20466476  0.51289250  0.39796362    -0.02500
C761        C  0.17974644  0.98247197  0.40932761     0.07500
C762        C  0.19129680  0.96773541  0.42553719    -0.02700
Br763      Br  0.15797557  0.93584081  0.44674483    -0.01200
Br764      Br  0.24184485  0.95538129  0.44893371    -0.01300
Br765      Br  0.18972321  0.53218314  0.37486850    -0.01200
Br766      Br  0.27569858  0.55580167  0.37937345    -0.01200
C767        C  0.98382015  0.49656869  0.44173799    -0.02300
C768        C  0.99014629  0.97505866  0.42479066     0.07300
C769        C  0.46169027  0.95660780  0.41043772    -0.02500
C770        C  0.43585109  0.96727221  0.40808060    -0.02500
C771        C  0.43164075  0.49190824  0.42333512     0.07500
C772        C  0.45711681  0.50639188  0.44000408    -0.02700
Br773      Br  0.95478769  0.53845961  0.46109362    -0.01200
Br774      Br  0.01924007  0.51737051  0.46419517    -0.01300
Br775      Br  0.40303173  0.94723187  0.38409141    -0.01200
Br776      Br  0.45921937  0.91797588  0.39290014    -0.01200
C777        C  0.46144437  0.75805558  0.27602358    -0.02300
C778        C  0.48737744  0.78277415  0.26146427     0.07300
C779        C  0.00576523  0.77075029  0.24795125    -0.02500
C780        C  0.99771159  0.73461116  0.24861200    -0.02500
C781        C  0.47030185  0.70953289  0.26221804     0.07500
C782        C  0.45260859  0.72160078  0.27609728    -0.02700
Br783      Br  0.41761536  0.68841022  0.29602354    -0.01200
Br784      Br  0.43913704  0.77420425  0.29697796    -0.01300
Br785      Br  0.02455754  0.71984253  0.23038748    -0.01200
Br786      Br  0.04093912  0.80299735  0.22764115    -0.01200
C787        C  0.00641061  0.49722317  0.26335876    -0.02300
C788        C  0.48852393  0.96948527  0.24551171     0.07300
C789        C  0.46053235  0.96888265  0.23328585    -0.02500
C790        C  0.45119203  0.99590851  0.23609133    -0.02500
C791        C  0.46864209  0.52229218  0.25272725     0.07500
C792        C  0.49205485  0.51968510  0.26761206    -0.02700
Br793      Br  0.00262029  0.54484627  0.29494458    -0.01200
Br794      Br  0.04288966  0.49866608  0.28192428    -0.01300
Br795      Br  0.41511982  0.99612074  0.21795606    -0.01200
Br796      Br  0.43512892  0.93111254  0.21234281    -0.01200
C797        C  0.00738346  0.93305946  0.32450306    -0.02300
C798        C  0.01383410  0.90655134  0.31531152     0.07300
C799        C  0.03821576  0.89859342  0.32552181    -0.02500
C800        C  0.05675523  0.91750790  0.34413229    -0.02500
C801        C  0.05089826  0.94450166  0.35328141     0.07500
C802        C  0.02608008  0.95221802  0.34326042    -0.02700
Br803      Br  0.51724564  0.98863131  0.35538423    -0.01200
Br804      Br  0.47300720  0.94314507  0.31137537    -0.01300
Br805      Br  0.09135055  0.90687842  0.35677062    -0.01200
Br806      Br  0.04586412  0.86090435  0.31397653    -0.01200
C807        C  0.47111817  0.83472931  0.17674105    -0.02300
C808        C  0.48586527  0.86748103  0.18814493     0.07300
C809        C  0.00522285  0.90011691  0.17673686    -0.02500
C810        C  0.00921680  0.90001569  0.15425829    -0.02500
C811        C  0.49389855  0.86735207  0.14286723     0.07500
C812        C  0.47526266  0.83468991  0.15420663    -0.02700
Br813      Br  0.45567417  0.78976149  0.13866717    -0.01200
Br814      Br  0.44587439  0.79002745  0.19200703    -0.01300
Br815      Br  0.03372088  0.94487984  0.13894390    -0.01200
Br816      Br  0.02507787  0.94560795  0.19177107    -0.01200
O817        O  0.52633317  0.44053861  0.24620940    -0.74900
O818        O  0.52430696  0.34999252  0.25648336    -0.75000
O819        O  0.52117622  0.38581638  0.22146149    -0.75000
O820        O  0.53457803  0.40795786  0.28067409    -0.75100
O821        O  0.97605137  0.38090721  0.28677049    -0.75000
O822        O  0.96199409  0.35911525  0.22489519    -0.75000
O823        O  0.96543383  0.32412075  0.26044862    -0.74900
O824        O  0.96730662  0.41170462  0.25125673    -0.75000
Ni825      Ni  0.52865477  0.39687999  0.25106338     1.25400
Ni826      Ni  0.96556533  0.36777761  0.25606787     1.25400
C827        C  0.49632414  0.44033623  0.24730240     0.87300
C828        C  0.49366643  0.32170040  0.25981182     0.87200
C829        C  0.99025496  0.37064230  0.21302921     0.87200
C830        C  0.50865904  0.39946558  0.29357671     0.87400
O831        O  0.52009441  0.44103998  0.42473568    -0.74900
O832        O  0.61388850  0.44971263  0.41558852    -0.75000
O833        O  0.57510213  0.44975693  0.44976248    -0.75000
O834        O  0.55624009  0.43616167  0.39023799    -0.75100
O835        O  0.57931049  0.49483852  0.38493431    -0.75000
O836        O  0.59968246  0.50904370  0.44664535    -0.75000
O837        O  0.63658763  0.50845593  0.41118520    -0.74900
O838        O  0.54584519  0.50028609  0.42065255    -0.75000
Ni839      Ni  0.56554195  0.44208710  0.42011336     1.25400
Ni840      Ni  0.59131962  0.50526787  0.41561125     1.25400
C841        C  0.51823402  0.47015514  0.42444886     0.87300
C842        C  0.64111383  0.48136888  0.41275169     0.87200
C843        C  0.58970167  0.48085963  0.45828524     0.87200
C844        C  0.56332518  0.46218348  0.37772745     0.87400
O845        O  0.93395385  0.05435363  0.25101301    -0.74900
O846        O  0.93582810  0.14625401  0.25710231    -0.75000
O847        O  0.94447100  0.10911486  0.22466761    -0.75000
O848        O  0.91960344  0.08822290  0.28319948    -0.75100
O849        O  0.97637041  0.11025148  0.29257427    -0.75000
O850        O  0.00256239  0.13868904  0.23261796    -0.75000
O851        O  0.99232020  0.17035920  0.26798488    -0.74900
O852        O  0.99230837  0.08401176  0.25753264    -0.75000
Ni853      Ni  0.93131893  0.09864021  0.25377757     1.25400
Ni854      Ni  0.99290653  0.12704895  0.26312440     1.25400
C855        C  0.96395303  0.05481042  0.25346761     0.87300
C856        C  0.96580990  0.17392838  0.26265580     0.87200
C857        C  0.97690559  0.12702978  0.21875274     0.87200
C858        C  0.94266241  0.09193817  0.29718693     0.87400
O859        O  0.90689652  0.03111160  0.42409311    -0.74900
O860        O  0.81853793  0.03571917  0.41840502    -0.75000
O861        O  0.85318125  0.02356788  0.45066384    -0.75000
O862        O  0.87603006  0.04889097  0.39229203    -0.75100
O863        O  0.85143988  0.99166827  0.38243534    -0.75000
O864        O  0.81969628  0.46873681  0.44389869    -0.75000
O865        O  0.78964151  0.48237886  0.40923478    -0.74900
O866        O  0.87114517  0.47300433  0.41788129    -0.75000
Ni867      Ni  0.86457375  0.03700075  0.42163220     1.25400
Ni868      Ni  0.83052278  0.47716546  0.41321465     1.25400
C869        C  0.90456488  0.00009113  0.42123750     0.87300
C870        C  0.79013839  0.00665030  0.41238579     0.87200
C871        C  0.83413093  0.99099170  0.45624801     0.87200
C872        C  0.87150989  0.02539360  0.37813390     0.87400
O873        O  0.56904958  0.01814508  0.58311728    -0.74900
O874        O  0.66056104  0.01998261  0.58819841    -0.75000
O875        O  0.61605421  0.01332909  0.55576151    -0.75000
O876        O  0.61547683  0.03027329  0.61548579    -0.75100
O877        O  0.58429810  0.97160210  0.62210692    -0.75000
O878        O  0.59432259  0.45817916  0.56394470    -0.75000
O879        O  0.63802228  0.46869616  0.59789329    -0.74900
O880        O  0.55060110  0.46743800  0.59080026    -0.75000
Ni881      Ni  0.61648996  0.02262893  0.58550370     1.25400
Ni882      Ni  0.59366451  0.46727878  0.59466310     1.25400
C883        C  0.54031429  0.98719982  0.58452262     0.87300
C884        C  0.65940515  0.98981788  0.59195242     0.87200
C885        C  0.60234141  0.98163891  0.54814135     0.87200
C886        C  0.59860713  0.00460213  0.62855797     0.87400
O887        O  0.58392151  0.03413993  0.76083226    -0.74900
O888        O  0.67329368  0.12309480  0.75028224    -0.75000
O889        O  0.63153892  0.09061627  0.78502622    -0.75000
O890        O  0.62696882  0.06334019  0.72673043    -0.75100
O891        O  0.59745653  0.09133151  0.71777621    -0.75000
O892        O  0.59977858  0.11754207  0.77845794    -0.75000
O893        O  0.64133001  0.14953178  0.74335895    -0.74900
O894        O  0.55470178  0.06308904  0.75250345    -0.75000
Ni895      Ni  0.63018457  0.07698888  0.75594433     1.25400
Ni896      Ni  0.59741329  0.10653713  0.74769116     1.25400
C897        C  0.55447283  0.03455492  0.75806917     0.87300
C898        C  0.67160163  0.15149977  0.74558358     0.87200
C899        C  0.61545433  0.10690718  0.79176327     0.87200
C900        C  0.61082917  0.07116589  0.71257220     0.87400
O901        O  0.87471404  0.43816591  0.57980502    -0.74900
O902        O  0.78461391  0.43767129  0.58866092    -0.75000
O903        O  0.82897808  0.44923675  0.55536615    -0.75000
O904        O  0.82771353  0.42132995  0.61237344    -0.75100
O905        O  0.85858511  0.47728289  0.62382721    -0.75000
O906        O  0.85936916  0.50723921  0.56412484    -0.75000
O907        O  0.81621859  0.49479377  0.59890126    -0.74900
O908        O  0.90343408  0.49583711  0.58967763    -0.75000
Ni909      Ni  0.82790069  0.43464285  0.58375180     1.25400
Ni910      Ni  0.86031350  0.49589255  0.59460170     1.25400
C911        C  0.90401219  0.46786171  0.58348889     0.87300
C912        C  0.78615767  0.46731964  0.59464115     0.87200
C913        C  0.84453224  0.48192574  0.54984624     0.87200
C914        C  0.84387215  0.44317353  0.62756082     0.87400
O915        O  0.87682741  0.41933922  0.75528799    -0.74900
O916        O  0.78712848  0.32801544  0.74874096    -0.75000
O917        O  0.83108003  0.36607441  0.78155952    -0.75000
O918        O  0.83105713  0.38535938  0.72261564    -0.75100
O919        O  0.86387980  0.35984367  0.71468370    -0.75000
O920        O  0.86088846  0.33673534  0.77559974    -0.75000
O921        O  0.81971307  0.30231299  0.74066025    -0.74900
O922        O  0.90570802  0.38916140  0.74945790    -0.75000
Ni923      Ni  0.83019522  0.37551006  0.75220739     1.25400
Ni924      Ni  0.86335564  0.34576079  0.74473519     1.25400
C925        C  0.90632153  0.41855881  0.75322093     0.87300
C926        C  0.78946943  0.29965661  0.74449098     0.87200
C927        C  0.84631837  0.34939548  0.78860496     0.87200
C928        C  0.84939392  0.37874022  0.70917932     0.87400
O929        O  0.92489209  0.39040627  0.91472375    -0.74900
O930        O  0.83229149  0.30445115  0.92291622    -0.75000
O931        O  0.87064645  0.34467756  0.88900112    -0.75000
O932        O  0.88935391  0.34823730  0.94840126    -0.75100
O933        O  0.86466112  0.38231555  0.95484604    -0.75000
O934        O  0.84581218  0.37918065  0.89320169    -0.75000
O935        O  0.80845769  0.33942338  0.92751732    -0.74900
O936        O  0.89837117  0.42304910  0.92039622    -0.75000
Ni937      Ni  0.88005143  0.34562930  0.91862601     1.25400
Ni938      Ni  0.85324012  0.38203458  0.92427152     1.25400
C939        C  0.92625681  0.42107184  0.91624926     0.87300
C940        C  0.80456649  0.30806716  0.92590365     0.87200
C941        C  0.85644503  0.36178889  0.88102932     0.87200
C942        C  0.88172898  0.36650826  0.96140751     0.87400
O943        O  0.94987802  0.40522202  0.09091469    -0.74900
O944        O  0.93738792  0.30928314  0.08052569    -0.75000
O945        O  0.95392363  0.35449235  0.11477840    -0.75000
O946        O  0.92710689  0.35766874  0.05762493    -0.75100
O947        O  0.98351504  0.38346447  0.04636627    -0.75000
O948        O  0.01135664  0.37887247  0.10579446    -0.75000
O949        O  0.99402931  0.33631443  0.07045103    -0.74900
O950        O  0.00657748  0.42753587  0.08151544    -0.75000
Ni951      Ni  0.93997230  0.35571434  0.08629072     1.25400
Ni952      Ni  0.00078630  0.38230287  0.07557369     1.25400
C953        C  0.98146626  0.43248368  0.08788023     0.87300
C954        C  0.96500498  0.30753798  0.07390650     0.87200
C955        C  0.98627203  0.36614318  0.12008671     0.87200
C956        C  0.94985048  0.37105052  0.04254555     0.87400
O957        O  0.54224557  0.09145981  0.91724407    -0.74900
O958        O  0.62881476  0.18548255  0.92138084    -0.75000
O959        O  0.59446217  0.13639140  0.88997508    -0.75000
O960        O  0.57283430  0.14172840  0.94872652    -0.75100
O961        O  0.60141767  0.11295523  0.95874543    -0.75000
O962        O  0.62743761  0.11158883  0.89863527    -0.75000
O963        O  0.65765294  0.15753420  0.93236644    -0.74900
O964        O  0.57550942  0.06682107  0.92501244    -0.75000
Ni965      Ni  0.58354250  0.13990565  0.91912173     1.25400
Ni966      Ni  0.61673456  0.11153424  0.92915027     1.25400
C967        C  0.54541452  0.06340070  0.92018225     0.87300
C968        C  0.65816256  0.18615204  0.92653581     0.87200
C969        C  0.61392880  0.12307095  0.88439467     0.87200
C970        C  0.58132835  0.12659672  0.96327741     0.87400
O971        O  0.53187148  0.10732783  0.09425992    -0.74900
O972        O  0.52125081  0.19156018  0.08527048    -0.75000
O973        O  0.51767327  0.15059140  0.11919314    -0.75000
O974        O  0.54169551  0.15070009  0.06084027    -0.75100
O975        O  0.98529897  0.11529672  0.05130871    -0.75000
O976        O  0.95975472  0.11476060  0.11226025    -0.75000
O977        O  0.96453512  0.15449714  0.07665403    -0.74900
O978        O  0.97420857  0.07336802  0.08588152    -0.75000
Ni979      Ni  0.53014406  0.15149929  0.09009082     1.25400
Ni980      Ni  0.96885113  0.11343062  0.08120692     1.25400
C981        C  0.50373867  0.07623498  0.09157373     0.87300
C982        C  0.49001359  0.18620812  0.07983999     0.87200
C983        C  0.98576344  0.13172550  0.12576984     0.87200
C984        C  0.51898004  0.13245090  0.04640158     0.87400
C985        C  0.53165620  0.09881639  0.99084615    -0.02300
C986        C  0.56683887  0.12539545  0.98536349     0.07300
C987        C  0.58541739  0.15460196  0.99940544    -0.02500
C988        C  0.56889240  0.15824131  0.01824080    -0.02500
C989        C  0.53377889  0.13088776  0.02443402     0.07500
C990        C  0.51580907  0.10063432  0.01055633    -0.02700
Br991      Br  0.97033466  0.06018352  0.01855659    -0.01200
Br992      Br  0.50456288  0.06000699  0.97098295    -0.01300
Br993      Br  0.59527003  0.20262157  0.03434730    -0.01200
Br994      Br  0.63398411  0.19011945  0.99238230    -0.01200
C995        C  0.94095905  0.24070259  0.08094302    -0.02300
C996        C  0.96650922  0.27325739  0.07144161     0.07300
C997        C  0.99721920  0.27443457  0.06174664    -0.02500
C998        C  0.50564058  0.24705623  0.06541906    -0.02500
C999        C  0.98194352  0.21616255  0.07690829     0.07500
C1000       C  0.94831019  0.21218035  0.08331467    -0.02700
Br1001     Br  0.91122394  0.16778981  0.09546906    -0.01200
Br1002     Br  0.89491475  0.23373062  0.08987730    -0.01300
Br1003     Br  0.54880758  0.25111053  0.05319940    -0.01200
Br1004     Br  0.52684782  0.31148541  0.04138294    -0.01200
C1005       C  0.51972672  0.49911249  0.07983626    -0.02300
C1006       C  0.99078736  0.47074009  0.09144563     0.07300
C1007       C  0.97287141  0.47990935  0.10715477    -0.02500
C1008       C  0.97682814  0.01405903  0.10612193    -0.02500
C1009       C  0.00379107  0.04207333  0.09375638     0.07500
C1010       C  0.52481469  0.03456733  0.07970076    -0.02700
Br1011     Br  0.55953680  0.07220357  0.06144411    -0.01200
Br1012     Br  0.54893798  0.49086436  0.05924400    -0.01300
Br1013     Br  0.94526136  0.02282855  0.12419813    -0.01200
Br1014     Br  0.93948713  0.44431363  0.12681865    -0.01200
C1015       C  0.75770421  0.24472511  0.91456189    -0.02300
C1016       C  0.76698387  0.27642189  0.92654052     0.07300
C1017       C  0.73893142  0.27910333  0.93723790    -0.02500
C1018       C  0.70290997  0.25102820  0.93578903    -0.02500
C1019       C  0.69429806  0.21899503  0.92477554     0.07500
C1020       C  0.72187481  0.21643623  0.91379016    -0.02700
Br1021     Br  0.71041003  0.17455760  0.89629546    -0.01200
Br1022     Br  0.79316997  0.23953692  0.89813904    -0.01300
Br1023     Br  0.66524265  0.25633667  0.94909251    -0.01200
Br1024     Br  0.74888524  0.31995394  0.95533884    -0.01200
C1025       C  0.98754646  0.46412962  0.92918384    -0.02300
C1026       C  0.95993537  0.45570025  0.91440872     0.07300
C1027       C  0.96079180  0.48326985  0.90162824    -0.02500
C1028       C  0.98850445  0.01647403  0.90214522    -0.02500
C1029       C  0.51500819  0.02590432  0.91809290     0.07500
C1030       C  0.51442689  0.99823059  0.93093270    -0.02700
Br1031     Br  0.54789783  0.00871955  0.95430337    -0.01200
Br1032     Br  0.48872138  0.42647247  0.94531272    -0.01300
Br1033     Br  0.99030775  0.05195785  0.88251423    -0.01200
Br1034     Br  0.92363614  0.47191450  0.88069194    -0.01200
C1035       C  0.92164732  0.40213871  0.99243459    -0.02300
C1036       C  0.89479752  0.36907247  0.98388355     0.07300
C1037       C  0.88703119  0.33706677  0.99450767    -0.02500
C1038       C  0.90676252  0.33784776  0.01274239    -0.02500
C1039       C  0.93476997  0.37076415  0.02085898     0.07500
C1040       C  0.94153150  0.40295168  0.01076586    -0.02700
Br1041     Br  0.97683223  0.44835074  0.02255761    -0.01200
Br1042     Br  0.93144613  0.44638890  0.97891639    -0.01300
Br1043     Br  0.89523453  0.29319443  0.02658443    -0.01200
Br1044     Br  0.84829707  0.29179523  0.98419822    -0.01200
C1045       C  0.88198095  0.36434068  0.82242561    -0.02300
C1046       C  0.84830987  0.34783680  0.81231056     0.07300
C1047       C  0.81727548  0.33804285  0.82485603    -0.02500
C1048       C  0.81996595  0.34478010  0.84720807    -0.02500
C1049       C  0.85358438  0.36088436  0.85728964     0.07500
C1050       C  0.88458269  0.37066686  0.84477646    -0.02700
Br1051     Br  0.93124320  0.39444896  0.85808970    -0.01200
Br1052     Br  0.92501344  0.38103823  0.80550985    -0.01300
Br1053     Br  0.77753918  0.33116497  0.86413251    -0.01200
Br1054     Br  0.77068819  0.31490044  0.81147595    -0.01200
C1055       C  0.83053319  0.38848857  0.65095195    -0.02300
C1056       C  0.84628507  0.42691893  0.64877743     0.07300
C1057       C  0.86652592  0.44861075  0.66643866    -0.02500
C1058       C  0.86972280  0.43263846  0.68552840    -0.02500
C1059       C  0.85366664  0.39491103  0.68746295     0.07500
C1060       C  0.83520302  0.37320927  0.66988175    -0.02700
Br1061     Br  0.81509125  0.32180753  0.67239196    -0.01200
Br1062     Br  0.80064420  0.35405384  0.62914207    -0.01300
Br1063     Br  0.89681715  0.46296797  0.70933436    -0.01200
Br1064     Br  0.90451921  0.99543672  0.65661642    -0.01200
C1065       C  0.60627243  0.08572129  0.85155897    -0.02300
C1066       C  0.61864965  0.11986985  0.86094274     0.07300
C1067       C  0.62953005  0.14997838  0.84745214    -0.02500
C1068       C  0.62776514  0.14589383  0.82483862    -0.02500
C1069       C  0.61472587  0.11162640  0.81546944     0.07500
C1070       C  0.60438729  0.08159668  0.82900797    -0.02700
Br1071     Br  0.58596705  0.03396749  0.81687238     0.01200
Br1072     Br  0.58921076  0.04391804  0.86959605    -0.01300
Br1073     Br  0.64497703  0.18747154  0.80669539    -0.01200
Br1074     Br  0.64762065  0.19720358  0.85996761    -0.01200
C1075       C  0.95595800  0.97608464  0.77021483    -0.02300
C1076       C  0.94255245  0.45099467  0.75451329     0.07300
C1077       C  0.96978219  0.45351893  0.74039410    -0.02500
C1078       C  0.50554100  0.48066066  0.74325312    -0.02500
C1079       C  0.51885134  0.00202623  0.75968953     0.07500
C1080       C  0.99227252  0.00258576  0.77269934    -0.02700
Br1081     Br  0.50541871  0.04037460  0.79386501    -0.01200
Br1082     Br  0.92076411  0.97553794  0.78974560    -0.01300
Br1083     Br  0.54201424  0.48335206  0.72389321    -0.01200
Br1084     Br  0.95838998  0.42165740  0.71577292    -0.01200
C1085       C  0.70473166  0.21291723  0.72838953    -0.02300
C1086       C  0.70405560  0.18813803  0.74368716     0.07300
C1087       C  0.73164871  0.20067904  0.75913497    -0.02500
C1088       C  0.75852673  0.23728005  0.75969180    -0.02500
C1089       C  0.75813925  0.26231777  0.74511149     0.07500
C1090       C  0.73120447  0.24974709  0.72934809    -0.02700
Br1091     Br  0.73149078  0.28285388  0.70851397    -0.01200
Br1092     Br  0.67068557  0.19620991  0.70503975    -0.01300
Br1093     Br  0.79575589  0.25311597  0.78106574    -0.01200
Br1094     Br  0.73229035  0.16838411  0.78034131    -0.01200
C1095       C  0.95781471  0.99087635  0.56606313    -0.02300
C1096       C  0.93978728  0.47108642  0.58230494     0.07300
C1097       C  0.95204086  0.46049973  0.60019571    -0.02500
C1098       C  0.98843799  0.47116764  0.60223653    -0.02500
C1099       C  0.50347309  0.98183633  0.58347381     0.07500
C1100       C  0.49371162  0.99917004  0.56795067    -0.02700
Br1101     Br  0.52895345  0.03327268  0.54846687    -0.01200
Br1102     Br  0.94483478  0.01596995  0.54557788    -0.01300
Br1103     Br  0.50468238  0.45945243  0.62831622    -0.01200
Br1104     Br  0.91940034  0.43348964  0.62292387    -0.01200
C1105       C  0.72834220  0.45849248  0.57878365    -0.02300
C1106       C  0.75392283  0.47203795  0.59549326     0.07300
C1107       C  0.74751970  0.99522763  0.60746835    -0.02500
C1108       C  0.72089005  0.00508690  0.60504865    -0.02500
C1109       C  0.69148030  0.98506909  0.59147321     0.07500
C1110       C  0.70107009  0.46762916  0.57792388    -0.02700
Br1111     Br  0.66541292  0.44694214  0.55558733    -0.01200
Br1112     Br  0.73130429  0.42897922  0.55609902    -0.01300
Br1113     Br  0.72460040  0.04594924  0.62056032    -0.01200
Br1114     Br  0.78363277  0.01990573  0.62929927    -0.01200
C1115       C  0.63134974  0.04273306  0.68386584    -0.02300
C1116       C  0.60700764  0.05445050  0.69054251     0.07300
C1117       C  0.57727821  0.04577116  0.67708024    -0.02500
C1118       C  0.57368958  0.02831453  0.65702397    -0.02500
C1119       C  0.59685932  0.01511365  0.65123815     0.07500
C1120       C  0.62464330  0.02116029  0.66528476    -0.02700
Br1121     Br  0.64053839  0.48988854  0.66542478    -0.01200
Br1122     Br  0.67642617  0.05867347  0.69839740    -0.01300
Br1123     Br  0.53767602  0.02383424  0.63704735    -0.01200
Br1124     Br  0.54021902  0.05599566  0.68594246    -0.01200
C1125       C  0.85142799  0.46642108  0.51189150    -0.02300
C1126       C  0.84455197  0.48816211  0.52633119     0.07300
C1127       C  0.83190998  0.51025288  0.51806094    -0.02500
C1128       C  0.82650575  0.51081620  0.49568827    -0.02500
C1129       C  0.83279914  0.48856536  0.48137178     0.07500
C1130       C  0.84543590  0.46653367  0.48967571    -0.02700
Br1131     Br  0.86033892  0.93782262  0.46998603    -0.01200
Br1132     Br  0.87018114  0.43659152  0.52220141    -0.01300
Br1133     Br  0.81012405  0.54214174  0.48475159    -0.01200
Br1134     Br  0.82008826  0.53825622  0.53739813    -0.01200
C1135       C  0.94399685  0.08744307  0.33815178    -0.02300
C1136       C  0.92823441  0.07247469  0.31814885     0.07300
C1137       C  0.89649802  0.03820811  0.31805941    -0.02500
C1138       C  0.87797099  0.02228801  0.33735282    -0.02500
C1139       C  0.89201021  0.03900682  0.35733364     0.07500
C1140       C  0.92669028  0.07025783  0.35751423    -0.02700
Br1141     Br  0.95263211  0.08863034  0.38418021    -0.01200
Br1142     Br  0.98890508  0.13194644  0.33931255    -0.01300
Br1143     Br  0.83288623  0.97798094  0.33600085    -0.01200
Br1144     Br  0.87917740  0.01101533  0.29159609    -0.01200
C1145       C  0.96773920  0.14916626  0.18351943    -0.02300
C1146       C  0.98316097  0.13223230  0.19528718     0.07300
C1147       C  0.99812725  0.11421778  0.18412925    -0.02500
C1148       C  0.49811379  0.11349405  0.16148127    -0.02500
C1149       C  0.98125498  0.12904068  0.14956982     0.07500
C1150       C  0.96736088  0.14808545  0.16081124    -0.02700
Br1151     Br  0.95116161  0.17578750  0.14525506    -0.01200
Br1152     Br  0.94723700  0.17421944  0.19857637    -0.01300
Br1153     Br  0.52314146  0.09253847  0.14701817    -0.01200
Br1154     Br  0.51659258  0.08838363  0.19995460    -0.01200
C1155       C  0.63042757  0.00144133  0.48960362    -0.02300
C1156       C  0.59445708  0.48254764  0.48196932     0.07300
C1157       C  0.56552544  0.45870994  0.49516660    -0.02500
C1158       C  0.57044486  0.45664561  0.51738623    -0.02500
C1159       C  0.60431242  0.47845313  0.52672934     0.07500
C1160       C  0.63239733  0.99778794  0.51204683    -0.02700
Br1161     Br  0.67847280  0.01868879  0.52589459    -0.01200
Br1162     Br  0.67354503  0.02596377  0.47273617    -0.01300
Br1163     Br  0.52996479  0.42544323  0.53509289    -0.01200
Br1164     Br  0.51817321  0.42990734  0.48316114    -0.01200
C1165       C  0.72731564  0.48369886  0.43037834    -0.02300
C1166       C  0.75352676  0.00238213  0.41277506     0.07300
C1167       C  0.74221728  0.01738020  0.39670933    -0.02500
C1168       C  0.70558811  0.00719667  0.39481135    -0.02500
C1169       C  0.67894666  0.48824447  0.41263642     0.07500
C1170       C  0.69093495  0.47438341  0.42913835    -0.02700
Br1171     Br  0.65815629  0.44419197  0.45110293    -0.01200
Br1172     Br  0.74218211  0.46340457  0.45289454    -0.01300
Br1173     Br  0.69088896  0.02590834  0.37125537    -0.01200
Br1174     Br  0.77695960  0.05094166  0.37683325    -0.01200
C1175       C  0.49053315  0.00192936  0.43847149    -0.02300
C1176       C  0.48438795  0.47086067  0.42751464     0.07300
C1177       C  0.95665786  0.45339434  0.41255383    -0.02500
C1178       C  0.93160558  0.46504921  0.40963608    -0.02500
C1179       C  0.93559823  0.99374796  0.42200397     0.07500
C1180       C  0.96252706  0.01001340  0.43773367    -0.02700
Br1181     Br  0.46035516  0.04189072  0.45904490    -0.01200
Br1182     Br  0.52985074  0.02835178  0.45805817    -0.01300
Br1183     Br  0.89925523  0.44544228  0.38543221    -0.01200
Br1184     Br  0.95328164  0.41365201  0.39580641    -0.01200
C1185       C  0.96189696  0.25911979  0.27572783    -0.02300
C1186       C  0.98911538  0.28483182  0.26211796     0.07300
C1187       C  0.50830356  0.27343462  0.24880989    -0.02500
C1188       C  0.50042152  0.23729879  0.24907361    -0.02500
C1189       C  0.97209610  0.21140479  0.26185014     0.07500
C1190       C  0.95316813  0.22265349  0.27528305    -0.02700
Br1191     Br  0.91659588  0.18823896  0.29400993    -0.01200
Br1192     Br  0.93715379  0.27353287  0.29600691    -0.01300
Br1193     Br  0.52871697  0.22355057  0.23138497    -0.01200
Br1194     Br  0.54393100  0.30630839  0.22892787    -0.01200
C1195       C  0.50685946  0.99710698  0.26059767    -0.02300
C1196       C  0.99351204  0.47307094  0.24597330     0.07300
C1197       C  0.96853527  0.47401911  0.23165694    -0.02500
C1198       C  0.95726107  0.49957471  0.23452357    -0.02500
C1199       C  0.96841328  0.02259361  0.25198122     0.07500
C1200       C  0.99524918  0.02184121  0.26486020    -0.02700
Br1201     Br  0.51428928  0.05229078  0.29016565    -0.01200
Br1202     Br  0.54703511  0.00028476  0.27624569    -0.01300
Br1203     Br  0.92707150  0.50379288  0.21333655    -0.01200
Br1204     Br  0.94958418  0.44003021  0.20813604    -0.01200
C1205       C  0.50665674  0.43429929  0.32661700    -0.02300
C1206       C  0.51905956  0.41296952  0.31624835     0.07300
C1207       C  0.54823817  0.41141275  0.32553959    -0.02500
C1208       C  0.56526762  0.43144156  0.34417863    -0.02500
C1209       C  0.55255830  0.45204244  0.35480050     0.07500
C1210       C  0.52348203  0.45387315  0.34571620    -0.02700
Br1211     Br  0.00720491  0.48374855  0.35927306    -0.01200
Br1212     Br  0.96701028  0.43722065  0.31465964    -0.01300
Br1213     Br  0.60728571  0.43162408  0.35510532    -0.01200
Br1214     Br  0.56433026  0.38022123  0.31336133    -0.01200
C1215       C  0.97084771  0.33555705  0.17811494    -0.02300
C1216       C  0.98902999  0.36869010  0.18909488     0.07300
C1217       C  0.51029212  0.40039345  0.17712973    -0.02500
C1218       C  0.51218812  0.39908309  0.15452198    -0.02500
C1219       C  0.99301689  0.36615125  0.14348834     0.07500
C1220       C  0.97272209  0.33431239  0.15544220    -0.02700
Br1221     Br  0.94737459  0.28871171  0.14062955    -0.01200
Br1222     Br  0.94454482  0.29178665  0.19418542    -0.01300
Br1223     Br  0.53876842  0.44302082  0.13854199    -0.01200
Br1224     Br  0.53581870  0.44651663  0.19147103    -0.01200
O1225       O  0.52177074  0.93732099  0.24569188    -0.74900
O1226       O  0.52149531  0.84758864  0.25516357    -0.75000
O1227       O  0.51770497  0.88379370  0.22047242    -0.75000
O1228       O  0.53044878  0.90416801  0.27986019    -0.75100
O1229       O  0.97163866  0.87610440  0.28559408    -0.75000
O1230       O  0.95836020  0.85622357  0.22369780    -0.75000
O1231       O  0.96240122  0.82069814  0.25883245    -0.74900
O1232       O  0.96274157  0.90779316  0.25067187    -0.75000
Ni1233     Ni  0.52492505  0.89407915  0.25013802     1.25400
Ni1234     Ni  0.96164596  0.86398359  0.25488767     1.25400
C1235       C  0.49159752  0.93676547  0.24690011     0.87300
C1236       C  0.49111698  0.81905088  0.25852694     0.87200
C1237       C  0.98675642  0.86847261  0.21193252     0.87200
C1238       C  0.50416406  0.89469495  0.29260315     0.87400
O1239       O  0.52353537  0.94289030  0.42349266    -0.74900
O1240       O  0.61464833  0.94609521  0.41375651    -0.75000
O1241       O  0.57872748  0.95133156  0.44803371    -0.75000
O1242       O  0.55624573  0.93222364  0.38931732    -0.75100
O1243       O  0.58168000  0.99038010  0.38168130    -0.75000
O1244       O  0.60468919  0.01040867  0.44304527    -0.75000
O1245       O  0.63923246  0.00462583  0.40770457    -0.74900
O1246       O  0.55100358  0.00159663  0.41689700    -0.75000
Ni1247     Ni  0.56747628  0.94108074  0.41877113     1.25400
Ni1248     Ni  0.59524253  0.00387453  0.41200574     1.25400
C1249       C  0.52301127  0.97262372  0.42194979     0.87300
C1250       C  0.64247255  0.97690661  0.40991480     0.87200
C1251       C  0.59395110  0.98308487  0.45558712     0.87200
C1252       C  0.56395008  0.95700920  0.37576398     0.87400
O1253       O  0.93363142  0.55316155  0.25163951    -0.74900
O1254       O  0.93433954  0.64432956  0.25801474    -0.75000
O1255       O  0.94439555  0.60808094  0.22576466    -0.75000
O1256       O  0.91800945  0.58596727  0.28392774    -0.75100
O1257       O  0.97469315  0.60922510  0.29393111    -0.75000
O1258       O  0.00224897  0.63775420  0.23425547    -0.75000
O1259       O  0.99077598  0.66904569  0.26916242    -0.74900
O1260       O  0.99171880  0.58307635  0.25933660    -0.75000
Ni1261     Ni  0.93044229  0.59701701  0.25463300     1.25400
Ni1262     Ni  0.99185274  0.62596285  0.26464216     1.25400
C1263       C  0.96370161  0.55398537  0.25449863     0.87300
C1264       C  0.96416216  0.67221397  0.26353837     0.87200
C1265       C  0.97695472  0.62631089  0.22016549     0.87200
C1266       C  0.94092138  0.59042670  0.29821711     0.87400
O1267       O  0.90509138  0.53140031  0.42447056    -0.74900
O1268       O  0.81826523  0.53946433  0.42012142    -0.75000
O1269       O  0.85370333  0.52685778  0.45174342    -0.75000
O1270       O  0.87379087  0.54997387  0.39310475    -0.75100
O1271       O  0.84759992  0.49252453  0.38365367    -0.75000
O1272       O  0.82098236  0.96554800  0.44202051    -0.75000
O1273       O  0.79193725  0.97892769  0.40695194    -0.74900
O1274       O  0.87465473  0.97268154  0.41709478    -0.75000
Ni1275     Ni  0.86368144  0.53908940  0.42257122     1.25400
Ni1276     Ni  0.83340154  0.97523455  0.41166489     1.25400
C1277       C  0.90156793  0.49978987  0.42189680     0.87300
C1278       C  0.78904726  0.51079004  0.41460364     0.87200
C1279       C  0.83449313  0.49461746  0.45780907     0.87200
C1280       C  0.86845203  0.52604014  0.37911086     0.87400
O1281       O  0.57836152  0.52592522  0.58363957    -0.74900
O1282       O  0.66904570  0.52644551  0.58891498    -0.75000
O1283       O  0.62271247  0.51666943  0.55679987    -0.75000
O1284       O  0.62597434  0.54064723  0.61562045    -0.75100
O1285       O  0.59487572  0.48288100  0.62449050    -0.75000
O1286       O  0.58858013  0.95413813  0.56065173    -0.75000
O1287       O  0.62971469  0.96160872  0.59550238    -0.74900
O1288       O  0.54226217  0.95900026  0.58728800    -0.75000
Ni1289     Ni  0.62530346  0.52954960  0.58602722     1.25400
Ni1290     Ni  0.58538910  0.95955846  0.59167137     1.25400
C1291       C  0.54938687  0.49571122  0.58657186     0.87300
C1292       C  0.66770532  0.49650104  0.59357440     0.87200
C1293       C  0.60759677  0.48419648  0.55037092     0.87200
C1294       C  0.60910232  0.51648626  0.62958108     0.87400
O1295       O  0.57953759  0.53989591  0.76155048    -0.74900
O1296       O  0.66892919  0.63012988  0.75422909    -0.75000
O1297       O  0.62430194  0.59531441  0.78729383    -0.75000
O1298       O  0.62646637  0.57209161  0.72920982    -0.75100
O1299       O  0.59511023  0.59723466  0.71918941    -0.75000
O1300       O  0.59352467  0.62297444  0.77980031    -0.75000
O1301       O  0.63677657  0.65558783  0.74537627    -0.74900
O1302       O  0.55012595  0.56858011  0.75309670    -0.75000
Ni1303     Ni  0.62594906  0.58351642  0.75834824     1.25400
Ni1304     Ni  0.59293748  0.61227031  0.74899171     1.25400
C1305       C  0.54998702  0.54000357  0.75839852     0.87300
C1306       C  0.66703586  0.65811175  0.74879522     0.87200
C1307       C  0.60822126  0.61181345  0.79351004     0.87200
C1308       C  0.61058118  0.57876622  0.71444931     0.87400
O1309       O  0.86642785  0.93216404  0.57769766    -0.74900
O1310       O  0.77729163  0.93187995  0.58894363    -0.75000
O1311       O  0.81944134  0.94249273  0.55434795    -0.75000
O1312       O  0.82271388  0.91675598  0.61162264    -0.75100
O1313       O  0.85191361  0.97351202  0.62231892    -0.75000
O1314       O  0.85165753  0.00076649  0.56234958    -0.75000
O1315       O  0.80923457  0.98979181  0.59705897    -0.74900
O1316       O  0.89578249  0.98973896  0.58781924    -0.75000
Ni1317     Ni  0.82024464  0.92879840  0.58289190     1.25400
Ni1318     Ni  0.85307603  0.99052645  0.59282718     1.25400
C1319       C  0.89587113  0.96169116  0.58119942     0.87300
C1320       C  0.77895288  0.96192588  0.59401227     0.87200
C1321       C  0.83584154  0.97507212  0.54845482     0.87200
C1322       C  0.83839892  0.93970726  0.62649699     0.87400
O1323       O  0.88024101  0.92222590  0.75428935    -0.74900
O1324       O  0.78712057  0.83418389  0.74939617    -0.75000
O1325       O  0.83326112  0.87120693  0.78141813    -0.75000
O1326       O  0.83242904  0.88923585  0.72215432    -0.75100
O1327       O  0.86143106  0.85978154  0.71402993    -0.75000
O1328       O  0.85962636  0.83857165  0.77515283    -0.75000
O1329       O  0.81621726  0.80489312  0.74111403    -0.74900
O1330       O  0.90547826  0.88868772  0.74816007    -0.75000
Ni1331     Ni  0.83209701  0.88023739  0.75194417     1.25400
Ni1332     Ni  0.86142836  0.84671826  0.74423816     1.25400
C1333       C  0.90844752  0.91911204  0.75208855     0.87300
C1334       C  0.78718769  0.80452603  0.74550290     0.87200
C1335       C  0.84662514  0.85264992  0.78828565     0.87200
C1336       C  0.84831948  0.87985216  0.70845199     0.87400
O1337       O  0.92609022  0.88820420  0.91305891    -0.74900
O1338       O  0.83528327  0.80148472  0.92323293    -0.75000
O1339       O  0.87072817  0.84109218  0.88849081    -0.75000
O1340       O  0.89338677  0.84673573  0.94724327    -0.75100
O1341       O  0.86764385  0.87954631  0.95460708    -0.75000
O1342       O  0.84529186  0.87492280  0.89345416    -0.75000
O1343       O  0.81052912  0.83565106  0.92863800    -0.74900
O1344       O  0.89895016  0.92004425  0.91963371    -0.75000
Ni1345     Ni  0.88213885  0.84308970  0.91782766     1.25400
Ni1346     Ni  0.85448884  0.87857672  0.92435920     1.25400
C1347       C  0.92692269  0.91857010  0.91490903     0.87300
C1348       C  0.80753766  0.80465830  0.92714759     0.87200
C1349       C  0.85582343  0.85781048  0.88094999     0.87200
C1350       C  0.88562026  0.86439992  0.96062082     0.87400
O1351       O  0.95149666  0.90510839  0.08900413    -0.74900
O1352       O  0.94131985  0.81023331  0.07960419    -0.75000
O1353       O  0.95587891  0.85534080  0.11359200    -0.75000
O1354       O  0.93140737  0.85791846  0.05589625    -0.75100
O1355       O  0.98853750  0.88497646  0.04579572    -0.75000
O1356       O  0.01382381  0.88059359  0.10559679    -0.75000
O1357       O  0.99843737  0.83784405  0.07046092    -0.74900
O1358       O  0.00894522  0.92879090  0.08087626    -0.75000
Ni1359     Ni  0.94293822  0.85617015  0.08483220     1.25400
Ni1360     Ni  0.00441397  0.88383133  0.07525469     1.25400
C1361       C  0.98284645  0.93283981  0.08635966     0.87300
C1362       C  0.96943004  0.80885903  0.07366108     0.87200
C1363       C  0.98808952  0.86746384  0.11941179     0.87200
C1364       C  0.95506735  0.87223966  0.04138346     0.87400
O1365       O  0.54392308  0.59390048  0.91979490    -0.74900
O1366       O  0.63244113  0.68601903  0.92536265    -0.75000
O1367       O  0.59607033  0.64012774  0.89292505    -0.75000
O1368       O  0.57659857  0.64143957  0.95219185    -0.75100
O1369       O  0.60438954  0.61096952  0.96022372    -0.75000
O1370       O  0.62701789  0.61221529  0.89925519    -0.75000
O1371       O  0.66007969  0.65553797  0.93369343    -0.74900
O1372       O  0.57580037  0.56707404  0.92587121    -0.75000
Ni1373     Ni  0.58630248  0.64159838  0.92242072     1.25400
Ni1374     Ni  0.61806598  0.61068762  0.93012426     1.25400
C1375       C  0.54602791  0.56506414  0.92191925     0.87300
C1376       C  0.66133807  0.68509077  0.92948471     0.87200
C1377       C  0.61380742  0.62564170  0.88607997     0.87200
C1378       C  0.58493140  0.62487390  0.96581322     0.87400
O1379       O  0.53551032  0.60859025  0.09663265    -0.74900
O1380       O  0.52441659  0.69240533  0.08725779    -0.75000
O1381       O  0.52001081  0.65121491  0.12115940    -0.75000
O1382       O  0.54559121  0.65219913  0.06318490    -0.75100
O1383       O  0.98993025  0.61528840  0.05343186    -0.75000
O1384       O  0.96227237  0.61549714  0.11370233    -0.75000
O1385       O  0.96823294  0.65513085  0.07767069    -0.74900
O1386       O  0.97788260  0.57422005  0.08834463    -0.75000
Ni1387     Ni  0.53337836  0.65255903  0.09227906     1.25400
Ni1388     Ni  0.97246401  0.61404017  0.08292218     1.25400
C1389       C  0.50746260  0.57736503  0.09417566     0.87300
C1390       C  0.49346516  0.68693955  0.08113195     0.87200
C1391       C  0.98794198  0.63207671  0.12744151     0.87200
C1392       C  0.52366195  0.63270309  0.04877015     0.87400
C1393       C  0.53305510  0.60218574  0.99139816    -0.02300
C1394       C  0.57036097  0.62198616  0.98796485     0.07300
C1395       C  0.59229546  0.64477025  0.00429523    -0.02500
C1396       C  0.57729131  0.64965166  0.02346481    -0.02500
C1397       C  0.53925722  0.62977277  0.02726187     0.07500
C1398       C  0.51757494  0.60544192  0.01085570    -0.02700
Br1399     Br  0.96634044  0.57614234  0.01402752    -0.01200
Br1400     Br  0.50279875  0.57009277  0.96906757    -0.01300
Br1401     Br  0.61111545  0.68579707  0.04316503    -0.01200
Br1402     Br  0.64345335  0.67037003  0.99969125    -0.01200
C1403       C  0.94493052  0.74196671  0.08099838    -0.02300
C1404       C  0.97099003  0.77454282  0.07173393     0.07300
C1405       C  0.00200869  0.77561642  0.06264147    -0.02500
C1406       C  0.51030640  0.74829310  0.06689915    -0.02500
C1407       C  0.98563127  0.71699098  0.07773203     0.07500
C1408       C  0.95170295  0.71305205  0.08331545    -0.02700
Br1409     Br  0.91339253  0.66817837  0.09410171    -0.01200
Br1410     Br  0.89904277  0.73548660  0.08997893    -0.01300
Br1411     Br  0.55480197  0.75314140  0.05636552    -0.01200
Br1412     Br  0.53190779  0.81218454  0.04217623    -0.01200
C1413       C  0.51827391  0.99913653  0.07733684    -0.02300
C1414       C  0.99039274  0.97055063  0.08932546     0.07300
C1415       C  0.97128764  0.97890088  0.10461319    -0.02500
C1416       C  0.98046343  0.51574079  0.10933886    -0.02500
C1417       C  0.00752148  0.54327832  0.09680102     0.07500
C1418       C  0.52778217  0.53498714  0.08259825    -0.02700
Br1419     Br  0.56402204  0.57253691  0.06496672    -0.01200
Br1420     Br  0.54746923  0.99133236  0.05651810    -0.01300
Br1421     Br  0.95206107  0.52667089  0.12885372    -0.01200
Br1422     Br  0.93909171  0.94316575  0.12467061    -0.01200
C1423       C  0.75933123  0.74363685  0.91446980    -0.02300
C1424       C  0.77074132  0.77285244  0.92892338     0.07300
C1425       C  0.74522987  0.77366596  0.94320420    -0.02500
C1426       C  0.70888273  0.74638897  0.94246919    -0.02500
C1427       C  0.69775422  0.71720713  0.92816094     0.07500
C1428       C  0.72335985  0.71587196  0.91435159    -0.02700
Br1429     Br  0.70933717  0.67603746  0.89462945    -0.01200
Br1430     Br  0.79212869  0.74193348  0.89377305    -0.01300
Br1431     Br  0.67452234  0.74817513  0.96167235    -0.01200
Br1432     Br  0.76000209  0.81085305  0.96493379    -0.01200
C1433       C  0.98787573  0.96216720  0.92780240    -0.02300
C1434       C  0.96025306  0.95336628  0.91298087     0.07300
C1435       C  0.96079108  0.98055248  0.90003321    -0.02500
C1436       C  0.98867676  0.51909146  0.90393907    -0.02500
C1437       C  0.51479418  0.52811411  0.91998970     0.07500
C1438       C  0.51364882  0.50024828  0.93283908    -0.02700
Br1439     Br  0.54556073  0.51082445  0.95706223    -0.01200
Br1440     Br  0.48788129  0.92494062  0.94515280    -0.01300
Br1441     Br  0.99133691  0.55517994  0.88450819    -0.01200
Br1442     Br  0.92312686  0.96856151  0.87934471    -0.01200
C1443       C  0.92141215  0.90063549  0.99289977    -0.02300
C1444       C  0.89962617  0.86704342  0.98282302     0.07300
C1445       C  0.89770187  0.83597520  0.99185919    -0.02500
C1446       C  0.91915144  0.83871396  0.00956902    -0.02500
C1447       C  0.94126835  0.87220468  0.01953114     0.07500
C1448       C  0.94120565  0.90294046  0.01155674    -0.02700
Br1449     Br  0.96624026  0.94777014  0.02694353    -0.01200
Br1450     Br  0.92517981  0.94371555  0.98093239    -0.01300
Br1451     Br  0.91775816  0.79606806  0.02060380    -0.01200
Br1452     Br  0.86415440  0.78895946  0.98054693    -0.01200
C1453       C  0.88169072  0.86536573  0.82212459    -0.02300
C1454       C  0.84817338  0.84994642  0.81191895     0.07300
C1455       C  0.81691619  0.83861215  0.82453025    -0.02500
C1456       C  0.81919825  0.84156428  0.84715007    -0.02500
C1457       C  0.85279337  0.85761878  0.85725881     0.07500
C1458       C  0.88401714  0.86928544  0.84463455    -0.02700
Br1459     Br  0.93059429  0.89170905  0.85803724    -0.01200
Br1460     Br  0.92490481  0.88413858  0.80517210    -0.01300
Br1461     Br  0.77629361  0.82154749  0.86437779    -0.01200
Br1462     Br  0.77072588  0.81941519  0.81096603    -0.01200
C1463       C  0.81909473  0.88793508  0.65279268    -0.02300
C1464       C  0.84163841  0.92521646  0.64801025     0.07300
C1465       C  0.86945256  0.94621933  0.66277186    -0.02500
C1466       C  0.87263523  0.93101692  0.68221551    -0.02500
C1467       C  0.85108741  0.89383416  0.68622624     0.07500
C1468       C  0.82583392  0.87229929  0.67077330    -0.02700
Br1469     Br  0.80030474  0.82096280  0.67450462    -0.01200
Br1470     Br  0.77612339  0.85740508  0.63653999    -0.01300
Br1471     Br  0.90662225  0.96151291  0.70362746    -0.01200
Br1472     Br  0.89005593  0.50043311  0.66544008    -0.01200
C1473       C  0.59912017  0.58862427  0.85263586    -0.02300
C1474       C  0.61608348  0.62280659  0.86242586     0.07300
C1475       C  0.62840267  0.65371090  0.84945142    -0.02500
C1476       C  0.62414237  0.65037514  0.82687949    -0.02500
C1477       C  0.60690275  0.61612178  0.81713411     0.07500
C1478       C  0.59458880  0.58527916  0.83018666    -0.02700
Br1479     Br  0.57104153  0.53777102  0.81743738     0.01200
Br1480     Br  0.57998228  0.54597990  0.87008909    -0.01300
Br1481     Br  0.64385694  0.69267272  0.80920735    -0.01200
Br1482     Br  0.65198969  0.70085927  0.86255780    -0.01200
C1483       C  0.95167254  0.47710117  0.77084720    -0.02300
C1484       C  0.94579982  0.94975138  0.75387304     0.07300
C1485       C  0.97286155  0.94971036  0.74064085    -0.02500
C1486       C  0.50904670  0.97468841  0.74423519    -0.02500
C1487       C  0.51451427  0.50702773  0.75928932     0.07500
C1488       C  0.98724017  0.50566729  0.77269813    -0.02700
Br1489     Br  0.49815950  0.54370611  0.79329933    -0.01200
Br1490     Br  0.91611007  0.47314790  0.79130812    -0.01300
Br1491     Br  0.54543619  0.97274522  0.72690913    -0.01200
Br1492     Br  0.96089565  0.91755629  0.71612466    -0.01200
C1493       C  0.70091639  0.71877646  0.73099963    -0.02300
C1494       C  0.69926224  0.69474450  0.74712092     0.07300
C1495       C  0.72595464  0.70778604  0.76311953    -0.02500
C1496       C  0.75412598  0.74374615  0.76264660    -0.02500
C1497       C  0.75465591  0.76824728  0.74727552     0.07500
C1498       C  0.72750196  0.75551476  0.73165873    -0.02700
Br1499     Br  0.72725327  0.78820015  0.71077850    -0.01200
Br1500     Br  0.66846766  0.70104515  0.70684399    -0.01300
Br1501     Br  0.79232110  0.75891271  0.78325603    -0.01200
Br1502     Br  0.72332338  0.67730357  0.78656056    -0.01200
C1503       C  0.96470661  0.49310439  0.56656265    -0.02300
C1504       C  0.93120758  0.96434924  0.57930910     0.07300
C1505       C  0.94081413  0.94679724  0.59456382    -0.02500
C1506       C  0.97675152  0.95592125  0.59690549    -0.02500
C1507       C  0.51311882  0.49152612  0.58588463     0.07500
C1508       C  0.50103113  0.50230919  0.56795538    -0.02700
Br1509     Br  0.53366116  0.52829880  0.54495816    -0.01200
Br1510     Br  0.94950926  0.51208599  0.54350349    -0.01300
Br1511     Br  0.48775753  0.93183508  0.61947254    -0.01200
Br1512     Br  0.90491980  0.91215764  0.61364373    -0.01200
C1513       C  0.71705155  0.94680381  0.58123929    -0.02300
C1514       C  0.74658675  0.96661795  0.59504762     0.07300
C1515       C  0.75159434  0.49512301  0.61121102    -0.02500
C1516       C  0.72516628  0.50545069  0.60969136    -0.02500
C1517       C  0.69969588  0.49172744  0.59309074     0.07500
C1518       C  0.68982693  0.95589748  0.57957032    -0.02700
Br1519     Br  0.65077113  0.92894076  0.55977614    -0.01200
Br1520     Br  0.71336399  0.90749798  0.56382268    -0.01300
Br1521     Br  0.72293829  0.53750960  0.63078581    -0.01200
Br1522     Br  0.78320201  0.51128239  0.63578017    -0.01200
C1523       C  0.62503876  0.53980412  0.68908555    -0.02300
C1524       C  0.60982846  0.56283196  0.69232605     0.07300
C1525       C  0.59296969  0.56851171  0.67440851    -0.02500
C1526       C  0.59179052  0.55232353  0.65422525    -0.02500
C1527       C  0.60600415  0.52902118  0.65154225     0.07500
C1528       C  0.62173949  0.52226499  0.66915929    -0.02700
Br1529     Br  0.65408140  0.00014749  0.65857430    -0.01200
Br1530     Br  0.65292814  0.53208618  0.71065926    -0.01300
Br1531     Br  0.57001683  0.56197349  0.62998869    -0.01200
Br1532     Br  0.57208161  0.59924219  0.67646838    -0.01200
C1533       C  0.84699346  0.96159571  0.51098960    -0.02300
C1534       C  0.83669133  0.98116922  0.52495693     0.07300
C1535       C  0.82280293  0.00182177  0.51617326    -0.02500
C1536       C  0.82022650  0.00373410  0.49363170    -0.02500
C1537       C  0.83028634  0.98387947  0.47969381     0.07500
C1538       C  0.84364413  0.96281752  0.48856617    -0.02700
Br1539     Br  0.85745141  0.43838660  0.47046877    -0.01200
Br1540     Br  0.86710933  0.93368550  0.52238956    -0.01300
Br1541     Br  0.80272050  0.03365587  0.48197192    -0.01200
Br1542     Br  0.80539531  0.02574035  0.53503498    -0.01200
C1543       C  0.94131201  0.58746524  0.33917807    -0.02300
C1544       C  0.92637568  0.57146913  0.31923973     0.07300
C1545       C  0.89533116  0.53674941  0.31925405    -0.02500
C1546       C  0.87616378  0.52139371  0.33846763    -0.02500
C1547       C  0.88928865  0.53906676  0.35835496     0.07500
C1548       C  0.92376594  0.57070054  0.35854026    -0.02700
Br1549     Br  0.94943052  0.59026192  0.38518821    -0.01200
Br1550     Br  0.98544573  0.63278794  0.34022316    -0.01300
Br1551     Br  0.83164844  0.47655691  0.33704801    -0.01200
Br1552     Br  0.88032112  0.50828861  0.29313591    -0.01200
C1553       C  0.96384799  0.64421555  0.18469171    -0.02300
C1554       C  0.98368433  0.63231450  0.19679219     0.07300
C1555       C  0.00380701  0.61940141  0.18599619    -0.02500
C1556       C  0.50389276  0.61808412  0.16336871    -0.02500
C1557       C  0.98295665  0.62875980  0.15116180     0.07500
C1558       C  0.96325016  0.64212022  0.16204158    -0.02700
Br1559     Br  0.93692385  0.65938531  0.14605383    -0.01200
Br1560     Br  0.93822077  0.66465394  0.19917505    -0.01300
Br1561     Br  0.53288008  0.60111013  0.14934351    -0.01200
Br1562     Br  0.52972289  0.60147256  0.20223324    -0.01200
C1563       C  0.62852809  0.50346769  0.49118128    -0.02300
C1564       C  0.59691365  0.98596035  0.47935539     0.07300
C1565       C  0.56546099  0.96621457  0.49173781    -0.02500
C1566       C  0.56744937  0.96251548  0.51406389    -0.02500
C1567       C  0.60087145  0.97831460  0.52438387     0.07500
C1568       C  0.63352264  0.50116450  0.51337043    -0.02700
Br1569     Br  0.68100232  0.52875118  0.52534037    -0.01200
Br1570     Br  0.66875297  0.53450070  0.47333390    -0.01300
Br1571     Br  0.52400641  0.93746371  0.53069458    -0.01200
Br1572     Br  0.51897433  0.94412449  0.47823015    -0.01200
C1573       C  0.72766912  0.97720863  0.42703485    -0.02300
C1574       C  0.75284187  0.50775457  0.41553831     0.07300
C1575       C  0.74128845  0.52269223  0.39953535    -0.02500
C1576       C  0.70466187  0.51289638  0.39796661    -0.02500
C1577       C  0.67972415  0.98243253  0.40939407     0.07500
C1578       C  0.69130252  0.96770357  0.42559204    -0.02700
Br1579     Br  0.65800700  0.93579040  0.44680297    -0.01200
Br1580     Br  0.74190080  0.95540120  0.44896974    -0.01300
Br1581     Br  0.68971877  0.53217948  0.37486815    -0.01200
Br1582     Br  0.77569609  0.55580605  0.37937746    -0.01200
C1583       C  0.48379167  0.49651497  0.44174448    -0.02300
C1584       C  0.49010949  0.97499835  0.42486535     0.07300
C1585       C  0.96172917  0.95669298  0.41035878    -0.02500
C1586       C  0.93589356  0.96736489  0.40801728    -0.02500
C1587       C  0.93165383  0.49194377  0.42333779     0.07500
C1588       C  0.95714255  0.50644246  0.43999940    -0.02700
Br1589     Br  0.45474636  0.53839033  0.46110575    -0.01200
Br1590     Br  0.51919717  0.51729707  0.46421047    -0.01300
Br1591     Br  0.90307737  0.94737168  0.38402426    -0.01200
Br1592     Br  0.95925104  0.91807915  0.39280015    -0.01200
C1593       C  0.96137758  0.75802021  0.27597073    -0.02300
C1594       C  0.98731464  0.78273397  0.26141105     0.07300
C1595       C  0.50581522  0.77079111  0.24799268    -0.02500
C1596       C  0.49774889  0.73464699  0.24863964    -0.02500
C1597       C  0.97026156  0.70950092  0.26219056     0.07500
C1598       C  0.95255297  0.72156901  0.27605687    -0.02700
Br1599     Br  0.91755691  0.68838563  0.29598475    -0.01200
Br1600     Br  0.93904901  0.77417010  0.29690971    -0.01300
Br1601     Br  0.52457047  0.71987510  0.23039569    -0.01200
Br1602     Br  0.54098940  0.80304754  0.22768620    -0.01200
C1603       C  0.50640461  0.49722939  0.26334916    -0.02300
C1604       C  0.98849111  0.96945959  0.24546060     0.07300
C1605       C  0.96049631  0.96886486  0.23324241    -0.02500
C1606       C  0.95116276  0.99589403  0.23605644    -0.02500
C1607       C  0.96864526  0.52228104  0.25273344     0.07500
C1608       C  0.99205965  0.51967875  0.26761921    -0.02700
Br1609     Br  0.50261549  0.54484681  0.29493944    -0.01200
Br1610     Br  0.54288711  0.49867237  0.28191152    -0.01300
Br1611     Br  0.91508675  0.99611758  0.21793015    -0.01200
Br1612     Br  0.93507886  0.93110104  0.21229804    -0.01200
C1613       C  0.50741370  0.93308268  0.32457590    -0.02300
C1614       C  0.51388322  0.90659156  0.31537645     0.07300
C1615       C  0.53826773  0.89863740  0.32558691    -0.02500
C1616       C  0.55679057  0.91753815  0.34420502    -0.02500
C1617       C  0.55091279  0.94451266  0.35336312     0.07500
C1618       C  0.52608997  0.95222362  0.34334306    -0.02700
Br1619     Br  0.01727538  0.98866289  0.35528366    -0.01200
Br1620     Br  0.97297505  0.94312085  0.31130419    -0.01300
Br1621     Br  0.59138698  0.90691168  0.35684487    -0.01200
Br1622     Br  0.54593805  0.86096678  0.31403431    -0.01200
C1623       C  0.97107421  0.83470031  0.17668106    -0.02300
C1624       C  0.98581317  0.86745107  0.18808499     0.07300
C1625       C  0.50527822  0.90014511  0.17679520    -0.02500
C1626       C  0.50926950  0.90004144  0.15431617    -0.02500
C1627       C  0.99385395  0.86732690  0.14280922     0.07500
C1628       C  0.97522324  0.83466331  0.15414739    -0.02700
Br1629     Br  0.95564522  0.78973670  0.13860702    -0.01200
Br1630     Br  0.94583460  0.78999704  0.19194610    -0.01300
Br1631     Br  0.53378320  0.94490419  0.13900112    -0.01200
Br1632     Br  0.52514029  0.94563819  0.19182775    -0.01200
loop_ 
_geom_bond_atom_site_label_1 
_geom_bond_atom_site_label_2 
_geom_bond_distance 
_geom_bond_site_symmetry_2 
_ccdc_geom_bond_type 
O1           Ni9   1.951       .  S
O1           C11   1.291   1_455  A
O2           Ni9   1.958       .  S
O2           C12   1.292   1_455  A
O3           Ni9   1.887       .  S
O3          C829   1.271   1_455  A
O4           Ni9   1.885       .  S
O4           C14   1.272       .  A
O5          Ni10   1.977       .  S
O5          C830   1.295       .  A
O6          Ni10   1.964       .  S
O6           C13   1.293       .  A
O7          Ni10   1.893       .  S
O7          C828   1.272       .  A
O8          Ni10   1.875       .  S
O8          C827   1.269       .  A
Ni9        Ni826   2.383   1_455  S
Ni10       Ni825   2.383       .  S
C11         O824   1.269       .  A
C11        C1196   1.472       .  S
C12         O823   1.272       .  A
C12        C1186   1.502       .  S
C13         O819   1.271       .  A
C13         C400   1.491       .  S
C14         O821   1.295   1_455  A
C14         C390   1.503       .  S
O15         Ni23   1.957       .  S
O15          C25   1.291       .  A
O16         Ni23   1.961       .  S
O16          C26   1.293       .  A
O17         Ni23   1.882       .  S
O17          C27   1.270       .  A
O18         Ni23   1.892       .  S
O18          C28   1.273       .  A
O19         Ni24   1.969       .  S
O19          C28   1.293       .  A
O20         Ni24   1.957       .  S
O20          C27   1.292       .  A
O21         Ni24   1.906       .  S
O21          C26   1.275       .  A
O22         Ni24   1.888       .  S
O22          C25   1.272       .  A
Ni23        Ni24   2.384       .  S
C25         C360   1.485   1_455  S
C26         C353   1.506       .  S
C27         C340   1.485       .  S
C28         C393   1.495       .  S
O29         Ni37   1.965       .  S
O29          C39   1.293       .  A
O30         Ni37   1.963       .  S
O30          C40   1.293       .  A
O31         Ni37   1.886       .  S
O31          C41   1.270       .  A
O32         Ni37   1.894       .  S
O32          C42   1.273       .  A
O33         Ni38   1.972       .  S
O33          C42   1.295       .  A
O34         Ni38   1.957       .  S
O34          C41   1.292       .  A
O35         Ni38   1.892       .  S
O35          C40   1.272       .  A
O36         Ni38   1.863       .  S
O36          C39   1.266       .  A
Ni37        Ni38   2.379       .  S
C39         C383   1.489       .  S
C40         C373   1.493       .  S
C41         C330   1.482       .  S
C42         C320   1.511       .  S
O43         Ni51   1.969       .  S
O43          C53   1.295       .  A
O44         Ni51   1.969       .  S
O44          C54   1.294       .  A
O45         Ni51   1.889       .  S
O45          C55   1.271   1_545  A
O46         Ni51   1.896       .  S
O46          C56   1.273       .  A
O47        Ni460   1.969       .  S
O47          C56   1.294   1_565  A
O48         Ni52   1.957       .  S
O48         C463   1.293       .  A
O49         Ni52   1.901       .  S
O49         C462   1.273       .  A
O50         Ni52   1.870       .  S
O50         C461   1.266       .  A
Ni51       Ni460   2.378   1_545  S
Ni52        O455   1.972       .  S
Ni52       Ni459   2.377       .  S
C53         O458   1.266   1_545  A
C53         C363   1.493   1_545  S
C54         O457   1.272   1_545  A
C54         C350   1.496       .  S
C55         O456   1.292       .  A
C55         C721   1.485       .  S
C56         C323   1.512       .  S
O57         Ni65   1.962       .  S
O57          C67   1.293   1_545  A
O58         Ni65   1.966       .  S
O58          C68   1.294   1_545  A
O59         Ni65   1.888       .  S
O59          C69   1.271   1_545  A
O60         Ni65   1.895       .  S
O60          C70   1.272       .  A
O61        Ni474   1.965       .  S
O61          C70   1.293   1_565  A
O62         Ni66   1.950       .  S
O62         C477   1.291       .  A
O63         Ni66   1.894       .  S
O63         C476   1.272       .  A
O64         Ni66   1.876       .  S
O64         C475   1.270       .  A
Ni65       Ni474   2.383   1_545  S
Ni66        O469   1.959       .  S
Ni66       Ni473   2.385       .  S
C67         O472   1.267       .  A
C67         C283   1.488       .  S
C68         O471   1.271       .  A
C68         C293   1.494       .  S
C69         O470   1.291       .  A
C69         C751   1.483       .  S
C70         C303   1.490       .  S
O71         Ni79   1.953       .  S
O71          C81   1.291       .  A
O72         Ni79   1.961       .  S
O72          C82   1.293       .  A
O73         Ni79   1.889       .  S
O73          C83   1.272       .  A
O74         Ni79   1.889       .  S
O74          C84   1.271       .  A
O75         Ni80   1.967       .  S
O75          C84   1.294       .  A
O76         Ni80   1.959       .  S
O76          C83   1.292       .  A
O77         Ni80   1.896       .  S
O77          C82   1.273       .  A
O78         Ni80   1.884       .  S
O78          C81   1.271       .  A
Ni79        Ni80   2.380       .  S
C81         C263   1.479       .  S
C82         C270   1.503       .  S
C83         C253   1.489       .  S
C84         C300   1.514       .  S
O85         Ni93   1.961       .  S
O85          C95   1.292       .  A
O86         Ni93   1.956       .  S
O86          C96   1.292       .  A
O87         Ni93   1.872       .  S
O87          C97   1.268       .  A
O88         Ni93   1.874       .  S
O88          C98   1.264       .  A
O89         Ni94   1.979       .  S
O89          C98   1.297       .  A
O90         Ni94   1.968       .  S
O90          C97   1.294       .  A
O91         Ni94   1.895       .  S
O91          C96   1.273       .  A
O92         Ni94   1.883       .  S
O92          C95   1.269       .  A
Ni93        Ni94   2.376       .  S
C95         C280   1.480       .  S
C96         C290   1.501       .  S
C97         C310   1.490       .  S
C98         C240   1.527       .  S
O99        Ni107   1.964       .  S
O99         C109   1.294       .  A
O100       Ni107   1.971       .  S
O100        C110   1.295       .  A
O101       Ni107   1.879       .  S
O101        C111   1.269       .  A
O102       Ni107   1.889       .  S
O102        C112   1.271       .  A
O103       Ni108   1.967       .  S
O103        C112   1.294       .  A
O104       Ni108   1.955       .  S
O104        C111   1.292       .  A
O105       Ni108   1.895       .  S
O105        C110   1.272       .  A
O106       Ni108   1.872       .  S
O106        C109   1.268       .  A
Ni107      Ni108   2.384       .  S
C109        C260   1.491       .  S
C110        C273   1.498       .  S
C111        C230   1.482       .  S
C112        C243   1.493       .  S
O113       Ni121   1.950       .  S
O113        C123   1.290       .  A
O114       Ni121   1.955       .  S
O114        C124   1.291       .  A
O115       Ni121   1.885       .  S
O115        C125   1.271       .  A
O116       Ni121   1.888       .  S
O116        C126   1.272       .  A
O117       Ni122   1.966       .  S
O117        C126   1.293       .  A
O118       Ni122   1.954       .  S
O118        C125   1.291       .  A
O119       Ni122   1.899       .  S
O119        C124   1.273       .  A
O120       Ni122   1.882       .  S
O120        C123   1.271       .  A
Ni121      Ni122   2.382       .  S
C123        C210   1.479       .  S
C124        C200   1.512       .  S
C125        C233   1.482       .  S
C126        C220   1.493       .  S
O127       Ni135   1.966       .  S
O127        C137   1.295       .  A
O128       Ni135   1.969       .  S
O128        C138   1.294       .  A
O129       Ni135   1.884       .  S
O129        C139   1.270       .  A
O130       Ni135   1.886       .  S
O130        C140   1.270       .  A
O131       Ni136   1.978       .  S
O131        C140   1.296       .  A
O132       Ni136   1.961       .  S
O132        C139   1.293       .  A
O133       Ni136   1.870       .  S
O133        C138   1.266       .  A
O134       Ni136   1.863       .  S
O134        C137   1.263       .  A
Ni135      Ni136   2.376       .  S
C137        C190   1.498       .  S
C138        C180   1.510       .  S
C139        C403   1.486       .  S
C140        C223   1.498       .  S
O141       Ni149   1.956       .  S
O141        C151   1.292       .  A
O142       Ni149   1.965       .  S
O142        C152   1.293       .  A
O143       Ni149   1.895       .  S
O143        C153   1.273       .  A
O144       Ni149   1.907       .  S
O144        C154   1.275       .  A
O145       Ni150   1.964       .  S
O145        C154   1.292       .  A
O146       Ni150   1.952       .  S
O146        C153   1.291       .  A
O147       Ni150   1.893       .  S
O147        C152   1.273       .  A
O148       Ni150   1.875       .  S
O148        C151   1.268       .  A
Ni149      Ni150   2.381       .  S
C151        C213   1.492       .  S
C152        C203   1.498       .  S
C153        C250   1.487       .  S
C154        C170   1.497       .  S
O155       Ni163   1.953       .  S
O155        C165   1.292       .  A
O156       Ni163   1.964       .  S
O156        C166   1.294   1_455  A
O157       Ni163   1.882       .  S
O157        C983   1.268   1_455  A
O158       Ni163   1.889       .  S
O158        C168   1.270       .  A
O159       Ni164   1.976       .  S
O159        C984   1.296       .  A
O160       Ni164   1.976       .  S
O160        C167   1.296       .  A
O161       Ni164   1.885       .  S
O161        C982   1.269       .  A
O162       Ni164   1.870       .  S
O162        C981   1.267       .  A
Ni163      Ni980   2.379   1_455  S
Ni164      Ni979   2.379       .  S
C165        O978   1.267   1_455  A
C165       C1009   1.475       .  S
C166        O977   1.269       .  A
C166        C999   1.501       .  S
C167        O973   1.268       .  A
C167        C333   1.491       .  S
C168        O975   1.296   1_455  A
C168        C173   1.520       .  S
C169        C170   1.415       .  A
C169        C174   1.421   1_556  A
C169       Br176   1.926       .  S
C170        C171   1.402       .  A
C171        C172   1.416   1_556  A
C171       Br178   1.931       .  S
C172        C173   1.434       .  A
C172       Br177   1.936       .  S
C173        C174   1.420       .  A
C174       Br991   1.931   1_455  S
Br175       C990   1.931       .  S
C179        C180   1.412       .  A
C179        C184   1.417       .  A
C179       Br186   1.934       .  S
C180        C181   1.430       .  A
C181        C998   1.411       .  A
C181      Br1004   1.941       .  S
C182        C997   1.411   1_455  A
C182        C999   1.406   1_455  A
C182       Br187   1.933       .  S
C183        C982   1.501       .  S
C183        C184   1.428       .  A
C183        C998   1.406       .  A
C184       Br185   1.936       .  S
Br188       C997   1.941   1_455  S
C189       C1006   1.435   1_455  A
C189        C602   1.409       .  A
C189       Br196   1.941       .  S
C190        C191   1.412       .  A
C190       C1005   1.435       .  A
C191        C600   1.409       .  A
C191       Br198   1.933       .  S
C192        C193   1.417       .  A
C192        C599   1.408   1_545  A
C192       Br197   1.934       .  S
C193        C981   1.475       .  S
C193       C1010   1.402       .  A
C194        C597   1.408   1_545  A
C194       C1009   1.402       .  A
C194       Br195   1.938       .  S
C199        C200   1.417       .  A
C199        C204   1.414       .  A
C199       Br206   1.936       .  S
C200        C201   1.431       .  A
C201        C202   1.418       .  A
C201       Br208   1.935       .  S
C202        C203   1.405       .  A
C202       Br207   1.929       .  S
C203        C204   1.418       .  A
C204       Br205   1.935       .  S
C209        C210   1.404       .  A
C209       C1438   1.407       .  A
C209      Br1032   1.934       .  S
C210        C211   1.417       .  A
C211        C620   1.411       .  A
C211       Br218   1.932       .  S
C212        C619   1.410   1_545  A
C212       C1029   1.413       .  A
C212       Br217   1.932       .  S
C213        C214   1.427   1_545  A
C213       C1028   1.413   1_455  A
C214       C1433   1.407   1_455  A
C214       Br215   1.940   1_565  S
Br216      C1025   1.934       .  S
C219        C220   1.413       .  A
C219        C224   1.420   1_556  A
C219       Br226   1.929       .  S
C220        C221   1.412       .  A
C221        C222   1.412   1_556  A
C221       Br228   1.934       .  S
C222        C223   1.416       .  A
C222       Br227   1.934       .  S
C223        C224   1.415       .  A
C224       Br225   1.921       .  S
C229        C230   1.409       .  A
C229        C234   1.409       .  A
C229       Br236   1.933       .  S
C230        C231   1.419       .  A
C231        C232   1.412       .  A
C231       Br238   1.932       .  S
C232        C233   1.406       .  A
C232       Br237   1.930       .  S
C233        C234   1.416       .  A
C234       Br235   1.933       .  S
C239        C240   1.446       .  A
C239        C244   1.416       .  A
C239       Br246   1.943       .  S
C240        C241   1.421       .  A
C241        C242   1.418       .  A
C241       Br656   1.934       .  S
C242        C243   1.416       .  A
C242       Br247   1.930       .  S
C243        C244   1.397       .  A
C244       Br245   1.936       .  S
Br248       C649   1.931       .  S
C249        C250   1.408       .  A
C249        C254   1.410       .  A
C249       Br256   1.933       .  S
C250        C251   1.417       .  A
C251        C252   1.414       .  A
C251       Br258   1.931       .  S
C252        C253   1.408       .  A
C252       Br257   1.929       .  S
C253        C254   1.420       .  A
C254       Br255   1.934       .  S
C259        C264   1.414   1_565  A
C259        C668   1.412       .  A
C259       Br266   1.930       .  S
C260        C261   1.423       .  A
C260        C667   1.410       .  A
C261       C1078   1.407       .  A
C261       Br268   1.939       .  S
C262       C1077   1.407   1_455  A
C262        C671   1.405       .  A
C262       Br267   1.934       .  S
C263        C670   1.403   1_545  A
C263       C1080   1.415   1_455  A
C264       C1079   1.415       .  A
C264      Br1081   1.931       .  S
Br265      C1080   1.931   1_455  S
C269        C270   1.423       .  A
C269        C274   1.418       .  A
C269       Br276   1.933       .  S
C270        C271   1.412       .  A
C271        C272   1.415       .  A
C271       Br278   1.933       .  S
C272        C273   1.419       .  A
C272       Br277   1.931       .  S
C273        C274   1.407       .  A
C274       Br275   1.928       .  S
C279        C688   1.415       .  A
C279       C1100   1.412       .  A
C279       Br286   1.931   1_565  S
C280        C281   1.407       .  A
C280        C687   1.416       .  A
C281        C282   1.405       .  A
C281       Br288   1.927       .  S
C282       C1507   1.417       .  A
C282      Br1103   1.938       .  S
C283        C284   1.411   1_455  A
C283       C1506   1.425   1_455  A
C284       C1095   1.412       .  A
C284       Br285   1.930   1_665  S
Br287      C1098   1.938   1_455  S
C289        C290   1.414       .  A
C289        C294   1.413       .  A
C289       Br296   1.933       .  S
C290        C699   1.424       .  A
C291        C292   1.416   1_565  A
C291        C698   1.428       .  A
C291       Br298   1.936   1_565  S
C292        C293   1.405   1_545  A
C292       Br297   1.929       .  S
C293        C702   1.419       .  A
C294        C701   1.416       .  A
C294       Br295   1.930       .  S
C299        C300   1.430       .  A
C299        C304   1.413       .  A
C299       Br306   1.936       .  S
C300        C301   1.419       .  A
C301        C302   1.418       .  A
C301       Br308   1.931       .  S
C302        C303   1.415       .  A
C302       Br307   1.927       .  S
C303        C304   1.401       .  A
C304       Br713   1.929   1_545  S
Br305       C712   1.936       .  S
C309        C310   1.422       .  A
C309        C314   1.408       .  A
C309       Br316   1.937       .  S
C310        C311   1.409       .  A
C311        C312   1.415       .  A
C311       Br318   1.930       .  S
C312        C313   1.420       .  A
C312       Br317   1.932       .  S
C313        C463   1.487       .  S
C313        C314   1.407       .  A
C314       Br723   1.934       .  S
Br315       C722   1.934       .  S
C319        C320   1.408       .  A
C319        C324   1.419       .  A
C319       Br326   1.930       .  S
C320        C321   1.427       .  A
C321        C322   1.418       .  A
C321       Br328   1.934       .  S
C322        C323   1.409       .  A
C322       Br327   1.931   1_545  S
C323        C324   1.429       .  A
C324       Br325   1.935       .  S
C329        C330   1.414       .  A
C329        C334   1.413       .  A
C329       Br336   1.931       .  S
C330        C331   1.406       .  A
C331       C1148   1.410       .  A
C331      Br1154   1.933       .  S
C332       C1147   1.410       .  A
C332       C1149   1.420       .  A
C332       Br337   1.929   1_655  S
C333        C334   1.409       .  A
C333       C1148   1.420       .  A
C334       Br335   1.921       .  S
Br338      C1147   1.933   1_455  S
C339        C344   1.415   1_545  A
C339        C748   1.408   1_545  A
C339       Br346   1.929       .  S
C340        C341   1.419       .  A
C340        C747   1.407       .  A
C341        C342   1.410       .  A
C341       Br348   1.935       .  S
C342        C343   1.409       .  A
C342       Br347   1.934       .  S
C343        C477   1.485       .  S
C343        C752   1.418       .  A
C344        C751   1.417       .  A
C344       Br345   1.930   1_565  S
C349        C354   1.415       .  A
C349        C758   1.417       .  A
C349       Br356   1.928       .  S
C350        C351   1.407       .  A
C350        C757   1.417   1_545  A
C351        C352   1.419       .  A
C351       Br358   1.928       .  S
C352        C761   1.424   1_545  A
C352       Br357   1.932       .  S
C353        C354   1.413       .  A
C353        C760   1.423       .  A
C354       Br355   1.934       .  S
C359        C768   1.419   1_545  A
C359       C1180   1.413       .  A
C359       Br366   1.931   1_655  S
C360        C767   1.416       .  A
C360       C1177   1.403       .  A
C361        C362   1.410       .  A
C361       C1176   1.403       .  A
C361       Br368   1.933       .  S
C362        C771   1.427       .  A
C362       Br367   1.937       .  S
C363        C364   1.409   1_565  A
C363        C770   1.426       .  A
C364       C1175   1.413       .  A
C364      Br1181   1.930       .  S
Br365      C1180   1.930       .  S
C369        C370   1.426       .  A
C369        C374   1.416       .  A
C369       Br376   1.933       .  S
C370        C828   1.502       .  S
C370       C1187   1.412       .  A
C371        C372   1.413       .  A
C371       C1186   1.413   1_455  A
C371       Br378   1.934       .  S
C372       C1189   1.420   1_455  A
C372       Br377   1.933       .  S
C373        C374   1.405       .  A
C373       C1188   1.420       .  A
C374       Br375   1.930       .  S
C379       C1604   1.402   1_455  A
C379       C1200   1.404   1_465  A
C379       Br386   1.935   1_565  S
C380        C827   1.472       .  S
C380        C381   1.417       .  A
C380       C1603   1.402       .  A
C381        C382   1.412       .  A
C381       Br388   1.930       .  S
C382        C791   1.408       .  A
C382       Br387   1.929       .  S
C383        C384   1.424       .  A
C383        C790   1.410   1_545  A
C384       C1195   1.404   1_545  A
C384      Br1201   1.939       .  S
Br385      C1200   1.939   1_455  S
C389        C390   1.418       .  A
C389        C394   1.424       .  A
C389      Br1212   1.928   1_455  S
C390        C391   1.418       .  A
C391        C392   1.409       .  A
C391       Br398   1.935       .  S
C392        C393   1.409       .  A
C392       Br397   1.934       .  S
C393        C394   1.415       .  A
C394      Br1211   1.927       .  S
Br395      C1210   1.927       .  S
Br396      C1205   1.928       .  S
C399        C400   1.408       .  A
C399        C404   1.415       .  A
C399       Br406   1.929       .  S
C400       C1217   1.420       .  A
C401        C402   1.411       .  A
C401       C1216   1.420   1_455  A
C401       Br408   1.933       .  S
C402       C1219   1.407   1_455  A
C402       Br407   1.932       .  S
C403        C404   1.418       .  A
C403       C1218   1.407       .  A
C404       Br405   1.930       .  S
O409       Ni417   1.949       .  S
O409        C419   1.291   1_455  A
O410       Ni417   1.954       .  S
O410        C420   1.291   1_455  A
O411       Ni417   1.885       .  S
O411       C1237   1.271   1_455  A
O412       Ni417   1.885       .  S
O412        C422   1.272       .  A
O413       Ni418   1.968       .  S
O413       C1238   1.293       .  A
O414       Ni418   1.960       .  S
O414        C421   1.292       .  A
O415       Ni418   1.892       .  S
O415       C1236   1.273       .  A
O416       Ni418   1.878       .  S
O416       C1235   1.270       .  A
Ni417     Ni1234   2.385   1_455  S
Ni418     Ni1233   2.385       .  S
C419       O1232   1.270       .  A
C419       C1604   1.477       .  S
C420       O1231   1.273       .  A
C420       C1594   1.496       .  S
C421       O1227   1.271       .  A
C421        C808   1.484       .  S
C422       O1229   1.293   1_455  A
C422        C798   1.491       .  S
O423       Ni431   1.954       .  S
O423        C433   1.292       .  A
O424       Ni431   1.959       .  S
O424        C434   1.293       .  A
O425       Ni431   1.878       .  S
O425        C435   1.269       .  A
O426       Ni431   1.884       .  S
O426        C436   1.271       .  A
O427       Ni432   1.973   1_565  S
O427        C436   1.295       .  A
O428       Ni432   1.964       .  S
O428        C435   1.293   1_545  A
O429       Ni432   1.898       .  S
O429        C434   1.273   1_545  A
O430       Ni432   1.883       .  S
O430        C433   1.270   1_545  A
Ni431      Ni432   2.384   1_565  S
C433        C768   1.481   1_455  S
C434        C761   1.502       .  S
C435        C748   1.484       .  S
C436        C801   1.497       .  S
O437       Ni445   1.961       .  S
O437        C447   1.292       .  A
O438       Ni445   1.961       .  S
O438        C448   1.293       .  A
O439       Ni445   1.880       .  S
O439        C449   1.270       .  A
O440       Ni445   1.894       .  S
O440        C450   1.273       .  A
O441       Ni446   1.967       .  S
O441        C450   1.294       .  A
O442       Ni446   1.954       .  S
O442        C449   1.292       .  A
O443       Ni446   1.890       .  S
O443        C448   1.271       .  A
O444       Ni446   1.863       .  S
O444        C447   1.267       .  A
Ni445      Ni446   2.382       .  S
C447        C791   1.481       .  S
C448        C781   1.490       .  S
C449        C738   1.481       .  S
C450        C728   1.507       .  S
O451       Ni459   1.974       .  S
O451        C461   1.296       .  A
O452       Ni459   1.972       .  S
O452        C462   1.294       .  A
O453       Ni459   1.882       .  S
O453        C463   1.269       .  A
O454       Ni459   1.891       .  S
O454        C464   1.271       .  A
O455        C464   1.295       .  A
O456       Ni460   1.952       .  S
O457       Ni460   1.895       .  S
O458       Ni460   1.868       .  S
C461        C771   1.496       .  S
C462        C758   1.501       .  S
C464        C731   1.513       .  S
O465       Ni473   1.957       .  S
O465        C475   1.291       .  A
O466       Ni473   1.964       .  S
O466        C476   1.293       .  A
O467       Ni473   1.883       .  S
O467        C477   1.271       .  A
O468       Ni473   1.894       .  S
O468        C478   1.273       .  A
O469        C478   1.292       .  A
O470       Ni474   1.954       .  S
O471       Ni474   1.885       .  S
O472       Ni474   1.868       .  S
C475        C691   1.483       .  S
C476        C701   1.491       .  S
C478        C711   1.493       .  S
O479       Ni487   1.957       .  S
O479        C489   1.292       .  A
O480       Ni487   1.955       .  S
O480        C490   1.291       .  A
O481       Ni487   1.877       .  S
O481        C491   1.269       .  A
O482       Ni487   1.877       .  S
O482        C492   1.265       .  A
O483       Ni488   1.975       .  S
O483        C492   1.295       .  A
O484       Ni488   1.964       .  S
O484        C491   1.293       .  A
O485       Ni488   1.895       .  S
O485        C490   1.273       .  A
O486       Ni488   1.885       .  S
O486        C489   1.270       .  A
Ni487      Ni488   2.377       .  S
C489        C671   1.481       .  S
C490        C678   1.498       .  S
C491        C661   1.484       .  S
C492        C708   1.524       .  S
O493       Ni501   1.948       .  S
O493        C503   1.290       .  A
O494       Ni501   1.955       .  S
O494        C504   1.291       .  A
O495       Ni501   1.882       .  S
O495        C505   1.270       .  A
O496       Ni501   1.884       .  S
O496        C506   1.269       .  A
O497       Ni502   1.973       .  S
O497        C506   1.295       .  A
O498       Ni502   1.959   1_545  S
O498        C505   1.292   1_545  A
O499       Ni502   1.891       .  S
O499        C504   1.272       .  A
O500       Ni502   1.882       .  S
O500        C503   1.270       .  A
Ni501      Ni502   2.378       .  S
C503        C688   1.474       .  S
C504        C698   1.506       .  S
C505        C718   1.485       .  S
C506        C648   1.518       .  S
O507       Ni515   1.964       .  S
O507        C517   1.294       .  A
O508       Ni515   1.970       .  S
O508        C518   1.294       .  A
O509       Ni515   1.884       .  S
O509        C519   1.270       .  A
O510       Ni515   1.896       .  S
O510        C520   1.273       .  A
O511       Ni516   1.967       .  S
O511        C520   1.293       .  A
O512       Ni516   1.953       .  S
O512        C519   1.292       .  A
O513       Ni516   1.892       .  S
O513        C518   1.272       .  A
O514       Ni516   1.873       .  S
O514        C517   1.268       .  A
Ni515      Ni516   2.384       .  S
C517        C668   1.493       .  S
C518        C681   1.495       .  S
C519        C638   1.481       .  S
C520        C651   1.493       .  S
O521       Ni529   1.946       .  S
O521        C531   1.289       .  A
O522       Ni529   1.950       .  S
O522        C532   1.291       .  A
O523       Ni529   1.883       .  S
O523        C533   1.271       .  A
O524       Ni529   1.881       .  S
O524        C534   1.271       .  A
O525       Ni530   1.963       .  S
O525        C534   1.292       .  A
O526       Ni530   1.955       .  S
O526        C533   1.291       .  A
O527       Ni530   1.895       .  S
O527        C532   1.273       .  A
O528       Ni530   1.882       .  S
O528        C531   1.271       .  A
Ni529      Ni530   2.385       .  S
C531        C618   1.476       .  S
C532        C608   1.497       .  S
C533        C641   1.480       .  S
C534        C628   1.491       .  S
O535       Ni543   1.958       .  S
O535        C545   1.294       .  A
O536       Ni543   1.961       .  S
O536        C546   1.294       .  A
O537       Ni543   1.883       .  S
O537        C547   1.270       .  A
O538       Ni543   1.882       .  S
O538        C548   1.270       .  A
O539       Ni544   1.970       .  S
O539        C548   1.294       .  A
O540       Ni544   1.954       .  S
O540        C547   1.291       .  A
O541       Ni544   1.880       .  S
O541        C546   1.268       .  A
O542       Ni544   1.870       .  S
O542        C545   1.265       .  A
Ni543      Ni544   2.379       .  S
C545        C598   1.493       .  S
C546        C588   1.510       .  S
C547        C811   1.479       .  S
C548        C631   1.487       .  S
O549       Ni557   1.958       .  S
O549        C559   1.293       .  A
O550       Ni557   1.963       .  S
O550        C560   1.293       .  A
O551       Ni557   1.889       .  S
O551        C561   1.271       .  A
O552       Ni557   1.896       .  S
O552        C562   1.273       .  A
O553       Ni558   1.962       .  S
O553        C562   1.292       .  A
O554       Ni558   1.953       .  S
O554        C561   1.291       .  A
O555       Ni558   1.889       .  S
O555        C560   1.272       .  A
O556       Ni558   1.871       .  S
O556        C559   1.268       .  A
Ni557      Ni558   2.384       .  S
C559        C621   1.490       .  S
C560        C611   1.491       .  S
C561        C658   1.483       .  S
C562        C578   1.492       .  S
O563       Ni571   1.955       .  S
O563        C573   1.292       .  A
O564       Ni571   1.959       .  S
O564        C574   1.293   1_455  A
O565       Ni571   1.877       .  S
O565       C1391   1.268   1_455  A
O566       Ni571   1.885       .  S
O566        C576   1.268       .  A
O567       Ni572   1.971       .  S
O567       C1392   1.294       .  A
O568       Ni572   1.970       .  S
O568        C575   1.295       .  A
O569       Ni572   1.892       .  S
O569       C1390   1.270       .  A
O570       Ni572   1.870       .  S
O570       C1389   1.267       .  A
Ni571     Ni1388   2.376   1_455  S
Ni572     Ni1387   2.376       .  S
C573       O1386   1.267   1_455  A
C573       C1417   1.475       .  S
C574       O1385   1.270       .  A
C574       C1407   1.502       .  S
C575       O1381   1.268       .  A
C575        C741   1.488       .  S
C576       O1383   1.294   1_455  A
C576        C581   1.527       .  S
C577        C578   1.413       .  A
C577        C582   1.418   1_556  A
C577       Br584   1.930       .  S
C578        C579   1.398   1_556  A
C579        C580   1.417       .  A
C579       Br586   1.935   1_554  S
C580        C581   1.443       .  A
C580       Br585   1.942       .  S
C581        C582   1.423       .  A
C582      Br1399   1.933   1_455  S
Br583      C1398   1.933       .  S
C587        C588   1.413       .  A
C587        C592   1.417       .  A
C587       Br594   1.936       .  S
C588        C589   1.429       .  A
C589       C1406   1.412       .  A
C589      Br1412   1.939       .  S
C590       C1405   1.412       .  A
C590       C1407   1.407   1_455  A
C590       Br595   1.935       .  S
C591       C1390   1.502       .  S
C591       C1406   1.407       .  A
C591        C592   1.428       .  A
C592       Br593   1.934       .  S
Br596      C1405   1.939       .  S
C597       C1414   1.431   1_455  A
C597       Br604   1.941       .  S
C598       C1413   1.431       .  A
C598        C599   1.411       .  A
C599       Br606   1.934       .  S
C600        C601   1.416       .  A
C600       Br605   1.933       .  S
C601       C1389   1.475       .  S
C601       C1418   1.401       .  A
C602       C1417   1.401       .  A
C602       Br603   1.938       .  S
C607        C608   1.412       .  A
C607        C612   1.410       .  A
C607       Br614   1.935       .  S
C608        C609   1.424       .  A
C609        C610   1.416       .  A
C609       Br616   1.933       .  S
C610        C611   1.406       .  A
C610       Br615   1.929       .  S
C611        C612   1.418       .  A
C612       Br613   1.932       .  S
C617        C618   1.403       .  A
C617       C1030   1.407       .  A
C617      Br1440   1.936       .  S
C618        C619   1.415       .  A
C619       Br626   1.933       .  S
C620       C1437   1.410       .  A
C620       Br625   1.931       .  S
C621       C1436   1.410   1_455  A
C621        C622   1.425       .  A
C622       C1025   1.407   1_455  A
C622       Br623   1.939       .  S
Br624      C1433   1.936       .  S
C627        C628   1.413       .  A
C627        C632   1.418   1_556  A
C627       Br634   1.930       .  S
C628        C629   1.416       .  A
C629        C630   1.408   1_556  A
C629       Br636   1.934       .  S
C630        C631   1.409       .  A
C630       Br635   1.933       .  S
C631        C632   1.415       .  A
C632       Br633   1.922       .  S
C637        C638   1.407       .  A
C637        C642   1.407       .  A
C637       Br644   1.933       .  S
C638        C639   1.419       .  A
C639        C640   1.412       .  A
C639       Br646   1.931       .  S
C640        C641   1.406       .  A
C640       Br645   1.930       .  S
C641        C642   1.416       .  A
C642       Br643   1.933       .  S
C647        C648   1.433       .  A
C647        C652   1.413       .  A
C647       Br654   1.938       .  S
C648        C649   1.420       .  A
C649        C650   1.419       .  A
C650        C651   1.415       .  A
C650       Br655   1.928       .  S
C651        C652   1.399       .  A
C652       Br653   1.928       .  S
C657        C658   1.407       .  A
C657        C662   1.408       .  A
C657       Br664   1.933       .  S
C658        C659   1.417       .  A
C659        C660   1.414       .  A
C659       Br666   1.930       .  S
C660        C661   1.408       .  A
C660       Br665   1.929       .  S
C661        C662   1.418       .  A
C662       Br663   1.933       .  S
C667        C672   1.414       .  A
C667       Br674   1.930       .  S
C668        C669   1.425       .  A
C669       C1486   1.407       .  A
C669       Br676   1.939       .  S
C670       C1485   1.407   1_455  A
C670       Br675   1.934       .  S
C671       C1488   1.418   1_455  A
C672       C1487   1.418       .  A
C672      Br1489   1.930       .  S
Br673      C1488   1.930       .  S
C677        C678   1.421       .  A
C677        C682   1.416       .  A
C677       Br684   1.933       .  S
C678        C679   1.411       .  A
C679        C680   1.413       .  A
C679       Br686   1.933       .  S
C680        C681   1.420       .  A
C680       Br685   1.929       .  S
C681        C682   1.407       .  A
C682       Br683   1.925       .  S
C687       C1508   1.414       .  A
C687       Br694   1.927       .  S
C688        C689   1.402       .  A
C689        C690   1.405       .  A
C689       Br696   1.935       .  S
C690       C1099   1.426       .  A
C690      Br1511   1.940       .  S
C691       C1098   1.417   1_455  A
C691        C692   1.409       .  A
C692       C1503   1.414   1_455  A
C692       Br693   1.929       .  S
Br695      C1506   1.940       .  S
C697        C698   1.416       .  A
C697        C702   1.413       .  A
C697       Br704   1.935       .  S
C699        C700   1.416       .  A
C699       Br706   1.933       .  S
C700        C701   1.406       .  A
C700       Br705   1.929       .  S
C702       Br703   1.936       .  S
C707        C708   1.444       .  A
C707        C712   1.415       .  A
C707       Br714   1.943       .  S
C708        C709   1.421       .  A
C709        C710   1.418       .  A
C709       Br716   1.934       .  S
C710        C711   1.417       .  A
C710       Br715   1.934       .  S
C711        C712   1.398       .  A
C717        C718   1.418       .  A
C717        C722   1.408       .  A
C717       Br724   1.934       .  S
C718        C719   1.408   1_565  A
C719        C720   1.414       .  A
C719       Br726   1.930       .  S
C720        C721   1.419   1_545  A
C720       Br725   1.931       .  S
C721        C722   1.408       .  A
C727        C728   1.406       .  A
C727        C732   1.417       .  A
C727       Br734   1.931       .  S
C728        C729   1.425       .  A
C729        C730   1.418       .  A
C729       Br736   1.934       .  S
C730        C731   1.411       .  A
C730       Br735   1.929       .  S
C731        C732   1.431       .  A
C732       Br733   1.936       .  S
C737        C738   1.416       .  A
C737        C742   1.411       .  A
C737       Br744   1.933       .  S
C738        C739   1.405       .  A
C739       C1556   1.409       .  A
C739      Br1562   1.933       .  S
C740       C1555   1.409       .  A
C740       C1557   1.422   1_455  A
C740       Br745   1.932       .  S
C741       C1556   1.422       .  A
C741        C742   1.407       .  A
C742       Br743   1.920       .  S
Br746      C1555   1.933       .  S
C747        C752   1.410       .  A
C747       Br754   1.931       .  S
C748        C749   1.418       .  A
C749        C750   1.408       .  A
C749       Br756   1.933       .  S
C750        C751   1.407       .  A
C750       Br755   1.933       .  S
C752       Br753   1.933       .  S
C757        C762   1.413       .  A
C757       Br764   1.928       .  S
C758        C759   1.409       .  A
C759        C760   1.421       .  A
C759       Br766   1.927       .  S
C760       Br765   1.930       .  S
C761        C762   1.412       .  A
C762       Br763   1.934       .  S
C767       C1588   1.414       .  A
C767       Br774   1.930   1_655  S
C768       C1585   1.402       .  A
C769       C1584   1.402       .  A
C769        C770   1.407       .  A
C769       Br776   1.934       .  S
C770       Br775   1.939       .  S
C771        C772   1.411       .  A
C772       C1583   1.414       .  A
C772      Br1589   1.929       .  S
Br773      C1588   1.929       .  S
C777        C778   1.423       .  A
C777        C782   1.414       .  A
C777       Br784   1.933       .  S
C778       C1236   1.496       .  S
C778       C1595   1.410       .  A
C779       C1594   1.410   1_455  A
C779        C780   1.412   1_455  A
C779       Br786   1.934       .  S
C780       C1597   1.420       .  A
C780       Br785   1.931   1_655  S
C781       C1596   1.420       .  A
C781        C782   1.404       .  A
C782       Br783   1.929       .  S
C787       C1196   1.402   1_455  A
C787       C1608   1.402   1_455  A
C787       Br794   1.932       .  S
C788       C1235   1.477       .  S
C788       C1195   1.402       .  A
C788        C789   1.419       .  A
C789        C790   1.413       .  A
C789       Br796   1.933       .  S
C790       Br795   1.930       .  S
C791        C792   1.419       .  A
C792       C1603   1.402       .  A
C792      Br1609   1.936       .  S
Br793      C1608   1.936   1_455  S
C797        C798   1.413       .  A
C797        C802   1.422       .  A
C797      Br1620   1.928   1_455  S
C798        C799   1.411       .  A
C799        C800   1.409       .  A
C799       Br806   1.935       .  S
C800        C801   1.416       .  A
C800       Br805   1.935       .  S
C801        C802   1.416       .  A
C802      Br1619   1.927       .  S
Br803      C1618   1.927       .  S
Br804      C1613   1.928       .  S
C807        C808   1.407       .  A
C807        C812   1.413       .  A
C807       Br814   1.928       .  S
C808       C1625   1.418       .  A
C809       C1624   1.418   1_455  A
C809        C810   1.409       .  A
C809       Br816   1.932       .  S
C810       C1627   1.406   1_455  A
C810       Br815   1.933       .  S
C811       C1626   1.406       .  A
C811        C812   1.415       .  A
C812       Br813   1.929       .  S
O817       Ni825   1.951       .  S
O817        C827   1.291       .  A
O818       Ni825   1.958       .  S
O818        C828   1.292       .  A
O819       Ni825   1.887       .  S
O820       Ni825   1.885       .  S
O820        C830   1.272       .  A
O821       Ni826   1.977       .  S
O822       Ni826   1.964       .  S
O822        C829   1.293       .  A
O823       Ni826   1.893       .  S
O824       Ni826   1.875       .  S
C829       C1216   1.491       .  S
C830       C1206   1.503       .  S
O831       Ni839   1.957       .  S
O831        C841   1.291       .  A
O832       Ni839   1.961       .  S
O832        C842   1.293       .  A
O833       Ni839   1.882       .  S
O833        C843   1.270       .  A
O834       Ni839   1.892       .  S
O834        C844   1.273       .  A
O835       Ni840   1.969       .  S
O835        C844   1.293       .  A
O836       Ni840   1.957       .  S
O836        C843   1.292       .  A
O837       Ni840   1.906       .  S
O837        C842   1.275       .  A
O838       Ni840   1.888       .  S
O838        C841   1.272       .  A
Ni839      Ni840   2.384       .  S
C841       C1176   1.485       .  S
C842       C1169   1.506       .  S
C843       C1156   1.485       .  S
C844       C1209   1.495       .  S
O845       Ni853   1.965       .  S
O845        C855   1.293       .  A
O846       Ni853   1.963       .  S
O846        C856   1.293       .  A
O847       Ni853   1.886       .  S
O847        C857   1.270       .  A
O848       Ni853   1.894       .  S
O848        C858   1.273       .  A
O849       Ni854   1.972       .  S
O849        C858   1.295       .  A
O850       Ni854   1.957   1_455  S
O850        C857   1.292   1_455  A
O851       Ni854   1.892       .  S
O851        C856   1.272       .  A
O852       Ni854   1.863       .  S
O852        C855   1.266       .  A
Ni853      Ni854   2.379       .  S
C855       C1199   1.489       .  S
C856       C1189   1.493       .  S
C857       C1146   1.482       .  S
C858       C1136   1.511       .  S
O859       Ni867   1.969       .  S
O859        C869   1.295       .  A
O860       Ni867   1.969       .  S
O860        C870   1.294       .  A
O861       Ni867   1.889       .  S
O861        C871   1.271   1_545  A
O862       Ni867   1.896       .  S
O862        C872   1.273       .  A
O863      Ni1276   1.969       .  S
O863        C872   1.294   1_565  A
O864       Ni868   1.957       .  S
O864       C1279   1.293       .  A
O865       Ni868   1.901       .  S
O865       C1278   1.273       .  A
O866       Ni868   1.870       .  S
O866       C1277   1.266       .  A
Ni867     Ni1276   2.378   1_545  S
Ni868      O1271   1.972       .  S
Ni868     Ni1275   2.377       .  S
C869       O1274   1.266   1_545  A
C869       C1179   1.493   1_545  S
C870       O1273   1.272   1_545  A
C870       C1166   1.496       .  S
C871       O1272   1.292       .  A
C871       C1537   1.485       .  S
C872       C1139   1.512       .  S
O873       Ni881   1.963       .  S
O873        C883   1.293   1_545  A
O874       Ni881   1.966       .  S
O874        C884   1.294   1_545  A
O875       Ni881   1.888       .  S
O875        C885   1.271   1_545  A
O876       Ni881   1.895       .  S
O876        C886   1.272       .  A
O877      Ni1290   1.965       .  S
O877        C886   1.293   1_565  A
O878       Ni882   1.950       .  S
O878       C1293   1.291       .  A
O879       Ni882   1.894       .  S
O879       C1292   1.272       .  A
O880       Ni882   1.876       .  S
O880       C1291   1.270       .  A
Ni881     Ni1290   2.383   1_545  S
Ni882      O1285   1.959       .  S
Ni882     Ni1289   2.385       .  S
C883       O1288   1.267       .  A
C883       C1099   1.489       .  S
C884       O1287   1.271       .  A
C884       C1109   1.494       .  S
C885       O1286   1.291       .  A
C885       C1567   1.483       .  S
C886       C1119   1.490       .  S
O887       Ni895   1.953       .  S
O887        C897   1.291       .  A
O888       Ni895   1.961       .  S
O888        C898   1.293       .  A
O889       Ni895   1.889       .  S
O889        C899   1.272       .  A
O890       Ni895   1.889       .  S
O890        C900   1.272       .  A
O891       Ni896   1.967       .  S
O891        C900   1.294       .  A
O892       Ni896   1.959       .  S
O892        C899   1.292       .  A
O893       Ni896   1.896       .  S
O893        C898   1.273       .  A
O894       Ni896   1.884       .  S
O894        C897   1.271       .  A
Ni895      Ni896   2.380       .  S
C897       C1079   1.479       .  S
C898       C1086   1.503       .  S
C899       C1069   1.489       .  S
C900       C1116   1.512       .  S
O901       Ni909   1.961       .  S
O901        C911   1.292       .  A
O902       Ni909   1.956       .  S
O902        C912   1.292       .  A
O903       Ni909   1.872       .  S
O903        C913   1.268       .  A
O904       Ni909   1.874       .  S
O904        C914   1.264       .  A
O905       Ni910   1.979       .  S
O905        C914   1.297       .  A
O906       Ni910   1.968       .  S
O906        C913   1.294       .  A
O907       Ni910   1.895       .  S
O907        C912   1.273       .  A
O908       Ni910   1.883       .  S
O908        C911   1.269       .  A
Ni909      Ni910   2.376       .  S
C911       C1096   1.480       .  S
C912       C1106   1.501       .  S
C913       C1126   1.490       .  S
C914       C1056   1.527       .  S
O915       Ni923   1.964       .  S
O915        C925   1.294       .  A
O916       Ni923   1.971       .  S
O916        C926   1.295       .  A
O917       Ni923   1.879       .  S
O917        C927   1.269       .  A
O918       Ni923   1.889       .  S
O918        C928   1.271       .  A
O919       Ni924   1.967       .  S
O919        C928   1.294       .  A
O920       Ni924   1.955       .  S
O920        C927   1.292       .  A
O921       Ni924   1.895       .  S
O921        C926   1.272       .  A
O922       Ni924   1.872       .  S
O922        C925   1.268       .  A
Ni923      Ni924   2.384       .  S
C925       C1076   1.491       .  S
C926       C1089   1.498       .  S
C927       C1046   1.482       .  S
C928       C1059   1.493       .  S
O929       Ni937   1.950       .  S
O929        C939   1.290       .  A
O930       Ni937   1.955       .  S
O930        C940   1.291       .  A
O931       Ni937   1.885       .  S
O931        C941   1.271       .  A
O932       Ni937   1.888       .  S
O932        C942   1.272       .  A
O933       Ni938   1.966       .  S
O933        C942   1.293       .  A
O934       Ni938   1.954       .  S
O934        C941   1.291       .  A
O935       Ni938   1.899       .  S
O935        C940   1.273       .  A
O936       Ni938   1.882       .  S
O936        C939   1.271       .  A
Ni937      Ni938   2.382       .  S
C939       C1026   1.479       .  S
C940       C1016   1.512       .  S
C941       C1049   1.482       .  S
C942       C1036   1.493       .  S
O943       Ni951   1.966       .  S
O943        C953   1.295       .  A
O944       Ni951   1.969       .  S
O944        C954   1.294       .  A
O945       Ni951   1.884       .  S
O945        C955   1.270       .  A
O946       Ni951   1.886       .  S
O946        C956   1.270       .  A
O947       Ni952   1.978   1_655  S
O947        C956   1.296       .  A
O948       Ni952   1.961       .  S
O948        C955   1.293   1_455  A
O949       Ni952   1.870   1_655  S
O949        C954   1.266       .  A
O950       Ni952   1.863       .  S
O950        C953   1.263   1_455  A
Ni951      Ni952   2.376   1_655  S
C953       C1006   1.498       .  S
C954        C996   1.510       .  S
C955       C1219   1.486       .  S
C956       C1039   1.498       .  S
O957       Ni965   1.956       .  S
O957        C967   1.292       .  A
O958       Ni965   1.965       .  S
O958        C968   1.293       .  A
O959       Ni965   1.895       .  S
O959        C969   1.273       .  A
O960       Ni965   1.907       .  S
O960        C970   1.275       .  A
O961       Ni966   1.964       .  S
O961        C970   1.292       .  A
O962       Ni966   1.952       .  S
O962        C969   1.291       .  A
O963       Ni966   1.893       .  S
O963        C968   1.273       .  A
O964       Ni966   1.875       .  S
O964        C967   1.268       .  A
Ni965      Ni966   2.381       .  S
C967       C1029   1.492       .  S
C968       C1019   1.498       .  S
C969       C1066   1.487       .  S
C970        C986   1.497       .  S
O971       Ni979   1.953       .  S
O971        C981   1.292       .  A
O972       Ni979   1.964       .  S
O972        C982   1.294       .  A
O973       Ni979   1.882       .  S
O974       Ni979   1.889       .  S
O974        C984   1.270       .  A
O975       Ni980   1.976       .  S
O976       Ni980   1.976       .  S
O976        C983   1.296       .  A
O977       Ni980   1.885       .  S
O978       Ni980   1.870       .  S
C983       C1149   1.491       .  S
C984        C989   1.520       .  S
C985        C986   1.415       .  A
C985        C990   1.421   1_556  A
C985       Br992   1.926       .  S
C986        C987   1.402       .  A
C987        C988   1.416   1_556  A
C987       Br994   1.931       .  S
C988        C989   1.434       .  A
C988       Br993   1.936       .  S
C989        C990   1.420       .  A
C995        C996   1.412       .  A
C995       C1000   1.417       .  A
C995      Br1002   1.934       .  S
C996        C997   1.430       .  A
C998      Br1003   1.933       .  S
C999       C1000   1.428       .  A
C1000     Br1001   1.936       .  S
C1005      C1418   1.409       .  A
C1005     Br1012   1.941       .  S
C1006      C1007   1.412       .  A
C1007      C1416   1.409       .  A
C1007     Br1014   1.933       .  S
C1008      C1415   1.408   1_545  A
C1008      C1009   1.417   1_655  A
C1008     Br1013   1.934       .  S
C1010      C1413   1.408   1_545  A
C1010     Br1011   1.938       .  S
C1015      C1016   1.417       .  A
C1015      C1020   1.414       .  A
C1015     Br1022   1.936       .  S
C1016      C1017   1.431       .  A
C1017      C1018   1.418       .  A
C1017     Br1024   1.935       .  S
C1018      C1019   1.405       .  A
C1018     Br1023   1.929       .  S
C1019      C1020   1.418       .  A
C1020     Br1021   1.935       .  S
C1025      C1026   1.404       .  A
C1026      C1027   1.417       .  A
C1027      C1436   1.411       .  A
C1027     Br1034   1.932       .  S
C1028      C1435   1.410   1_545  A
C1028     Br1033   1.932       .  S
C1029      C1030   1.427   1_545  A
C1030     Br1031   1.940   1_565  S
C1035      C1036   1.413       .  A
C1035      C1040   1.420   1_556  A
C1035     Br1042   1.929       .  S
C1036      C1037   1.412       .  A
C1037      C1038   1.412   1_556  A
C1037     Br1044   1.934       .  S
C1038      C1039   1.417       .  A
C1038     Br1043   1.934       .  S
C1039      C1040   1.415       .  A
C1040     Br1041   1.921       .  S
C1045      C1046   1.409       .  A
C1045      C1050   1.409       .  A
C1045     Br1052   1.933       .  S
C1046      C1047   1.419       .  A
C1047      C1048   1.412       .  A
C1047     Br1054   1.932       .  S
C1048      C1049   1.406       .  A
C1048     Br1053   1.930       .  S
C1049      C1050   1.416       .  A
C1050     Br1051   1.933       .  S
C1055      C1056   1.446       .  A
C1055      C1060   1.416       .  A
C1055     Br1062   1.943       .  S
C1056      C1057   1.421       .  A
C1057      C1058   1.418       .  A
C1057     Br1472   1.934       .  S
C1058      C1059   1.416       .  A
C1058     Br1063   1.930       .  S
C1059      C1060   1.397       .  A
C1060     Br1061   1.936       .  S
Br1064     C1465   1.931       .  S
C1065      C1066   1.408       .  A
C1065      C1070   1.410       .  A
C1065     Br1072   1.933       .  S
C1066      C1067   1.417       .  A
C1067      C1068   1.414       .  A
C1067     Br1074   1.931       .  S
C1068      C1069   1.408       .  A
C1068     Br1073   1.929       .  S
C1069      C1070   1.420       .  A
C1070     Br1071   1.934       .  S
C1075      C1484   1.412       .  A
C1075      C1080   1.414   1_565  A
C1075     Br1082   1.930       .  S
C1076      C1483   1.410       .  A
C1076      C1077   1.423       .  A
C1077     Br1084   1.939       .  S
C1078      C1487   1.405       .  A
C1078     Br1083   1.934       .  S
C1079      C1486   1.403   1_545  A
C1085      C1086   1.423       .  A
C1085      C1090   1.418       .  A
C1085     Br1092   1.933       .  S
C1086      C1087   1.412       .  A
C1087      C1088   1.415       .  A
C1087     Br1094   1.933       .  S
C1088      C1089   1.419       .  A
C1088     Br1093   1.931       .  S
C1089      C1090   1.407       .  A
C1090     Br1091   1.928       .  S
C1095      C1504   1.415       .  A
C1095     Br1102   1.931   1_565  S
C1096      C1503   1.416       .  A
C1096      C1097   1.407       .  A
C1097      C1098   1.405       .  A
C1097     Br1104   1.927       .  S
C1099      C1100   1.411       .  A
C1100     Br1101   1.930   1_565  S
C1105      C1106   1.414       .  A
C1105      C1110   1.413       .  A
C1105     Br1112   1.933       .  S
C1106      C1515   1.424       .  A
C1107      C1514   1.428       .  A
C1107      C1108   1.416   1_565  A
C1107     Br1114   1.936   1_565  S
C1108      C1109   1.405   1_545  A
C1108     Br1113   1.929       .  S
C1109      C1518   1.419       .  A
C1110      C1517   1.416       .  A
C1110     Br1111   1.930       .  S
C1115      C1116   1.429       .  A
C1115      C1120   1.412       .  A
C1115     Br1122   1.936       .  S
C1116      C1117   1.419       .  A
C1117      C1118   1.418       .  A
C1117     Br1124   1.931       .  S
C1118      C1119   1.415       .  A
C1118     Br1123   1.926       .  S
C1119      C1120   1.401       .  A
C1120     Br1529   1.929       .  S
Br1121     C1528   1.936       .  S
C1125      C1126   1.422       .  A
C1125      C1130   1.408       .  A
C1125     Br1132   1.937       .  S
C1126      C1127   1.409       .  A
C1127      C1128   1.415       .  A
C1127     Br1134   1.930       .  S
C1128      C1129   1.420       .  A
C1128     Br1133   1.932       .  S
C1129      C1279   1.487       .  S
C1129      C1130   1.407       .  A
C1130     Br1539   1.934       .  S
Br1131     C1538   1.934       .  S
C1135      C1136   1.408       .  A
C1135      C1140   1.419       .  A
C1135     Br1142   1.930       .  S
C1136      C1137   1.427       .  A
C1137      C1138   1.418       .  A
C1137     Br1144   1.934       .  S
C1138      C1139   1.409       .  A
C1138     Br1143   1.931   1_545  S
C1139      C1140   1.429       .  A
C1140     Br1141   1.935       .  S
C1145      C1146   1.414       .  A
C1145      C1150   1.413       .  A
C1145     Br1152   1.931       .  S
C1146      C1147   1.406       .  A
C1148     Br1153   1.929       .  S
C1149      C1150   1.409       .  A
C1150     Br1151   1.921       .  S
C1155      C1564   1.408   1_545  A
C1155      C1160   1.415   1_545  A
C1155     Br1162   1.929       .  S
C1156      C1563   1.407       .  A
C1156      C1157   1.419       .  A
C1157      C1158   1.410       .  A
C1157     Br1164   1.935       .  S
C1158      C1159   1.409       .  A
C1158     Br1163   1.934       .  S
C1159      C1293   1.485       .  S
C1159      C1568   1.418       .  A
C1160      C1567   1.417       .  A
C1160     Br1161   1.930   1_565  S
C1165      C1574   1.417       .  A
C1165      C1170   1.415       .  A
C1165     Br1172   1.928       .  S
C1166      C1573   1.417   1_545  A
C1166      C1167   1.407       .  A
C1167      C1168   1.419       .  A
C1167     Br1174   1.928       .  S
C1168      C1577   1.424   1_545  A
C1168     Br1173   1.932       .  S
C1169      C1576   1.423       .  A
C1169      C1170   1.413       .  A
C1170     Br1171   1.934       .  S
C1175      C1584   1.419   1_545  A
C1175     Br1182   1.931       .  S
C1176      C1583   1.416       .  A
C1177      C1178   1.410       .  A
C1177     Br1184   1.933       .  S
C1178      C1587   1.427       .  A
C1178     Br1183   1.937       .  S
C1179      C1586   1.426       .  A
C1179      C1180   1.409   1_565  A
C1185      C1186   1.426       .  A
C1185      C1190   1.416       .  A
C1185     Br1192   1.933       .  S
C1187      C1188   1.413       .  A
C1187     Br1194   1.934       .  S
C1188     Br1193   1.933       .  S
C1189      C1190   1.405       .  A
C1190     Br1191   1.930       .  S
C1195     Br1202   1.935   1_565  S
C1196      C1197   1.417       .  A
C1197      C1198   1.412       .  A
C1197     Br1204   1.930       .  S
C1198      C1607   1.408       .  A
C1198     Br1203   1.929       .  S
C1199      C1606   1.410   1_545  A
C1199      C1200   1.424       .  A
C1205      C1206   1.418       .  A
C1205      C1210   1.424       .  A
C1206      C1207   1.418       .  A
C1207      C1208   1.409       .  A
C1207     Br1214   1.935       .  S
C1208      C1209   1.409       .  A
C1208     Br1213   1.934       .  S
C1209      C1210   1.415       .  A
C1215      C1216   1.408       .  A
C1215      C1220   1.415       .  A
C1215     Br1222   1.929       .  S
C1217      C1218   1.411       .  A
C1217     Br1224   1.933       .  S
C1218     Br1223   1.932       .  S
C1219      C1220   1.418       .  A
C1220     Br1221   1.930       .  S
O1225     Ni1233   1.949       .  S
O1225      C1235   1.291       .  A
O1226     Ni1233   1.954       .  S
O1226      C1236   1.291       .  A
O1227     Ni1233   1.885       .  S
O1228     Ni1233   1.885       .  S
O1228      C1238   1.272       .  A
O1229     Ni1234   1.968       .  S
O1230     Ni1234   1.960       .  S
O1230      C1237   1.292       .  A
O1231     Ni1234   1.892       .  S
O1232     Ni1234   1.878       .  S
C1237      C1624   1.484       .  S
C1238      C1614   1.491       .  S
O1239     Ni1247   1.954       .  S
O1239      C1249   1.292       .  A
O1240     Ni1247   1.959       .  S
O1240      C1250   1.293       .  A
O1241     Ni1247   1.878       .  S
O1241      C1251   1.269       .  A
O1242     Ni1247   1.884       .  S
O1242      C1252   1.271       .  A
O1243     Ni1248   1.973   1_565  S
O1243      C1252   1.295       .  A
O1244     Ni1248   1.965       .  S
O1244      C1251   1.293   1_545  A
O1245     Ni1248   1.898       .  S
O1245      C1250   1.273   1_545  A
O1246     Ni1248   1.883       .  S
O1246      C1249   1.270   1_545  A
Ni1247    Ni1248   2.384   1_565  S
C1249      C1584   1.481       .  S
C1250      C1577   1.502       .  S
C1251      C1564   1.484       .  S
C1252      C1617   1.497       .  S
O1253     Ni1261   1.961       .  S
O1253      C1263   1.292       .  A
O1254     Ni1261   1.961       .  S
O1254      C1264   1.293       .  A
O1255     Ni1261   1.880       .  S
O1255      C1265   1.270       .  A
O1256     Ni1261   1.894       .  S
O1256      C1266   1.273       .  A
O1257     Ni1262   1.967       .  S
O1257      C1266   1.294       .  A
O1258     Ni1262   1.954   1_455  S
O1258      C1265   1.292   1_455  A
O1259     Ni1262   1.890       .  S
O1259      C1264   1.271       .  A
O1260     Ni1262   1.863       .  S
O1260      C1263   1.267       .  A
Ni1261    Ni1262   2.382       .  S
C1263      C1607   1.481       .  S
C1264      C1597   1.490       .  S
C1265      C1554   1.481       .  S
C1266      C1544   1.507       .  S
O1267     Ni1275   1.974       .  S
O1267      C1277   1.296       .  A
O1268     Ni1275   1.972       .  S
O1268      C1278   1.294       .  A
O1269     Ni1275   1.882       .  S
O1269      C1279   1.269       .  A
O1270     Ni1275   1.891       .  S
O1270      C1280   1.271       .  A
O1271      C1280   1.295       .  A
O1272     Ni1276   1.952       .  S
O1273     Ni1276   1.895       .  S
O1274     Ni1276   1.868       .  S
C1277      C1587   1.496       .  S
C1278      C1574   1.501       .  S
C1280      C1547   1.513       .  S
O1281     Ni1289   1.957       .  S
O1281      C1291   1.291       .  A
O1282     Ni1289   1.964       .  S
O1282      C1292   1.293       .  A
O1283     Ni1289   1.883       .  S
O1283      C1293   1.271       .  A
O1284     Ni1289   1.894       .  S
O1284      C1294   1.273       .  A
O1285      C1294   1.292       .  A
O1286     Ni1290   1.954       .  S
O1287     Ni1290   1.885       .  S
O1288     Ni1290   1.868       .  S
C1291      C1507   1.483       .  S
C1292      C1517   1.491       .  S
C1294      C1527   1.493       .  S
O1295     Ni1303   1.957       .  S
O1295      C1305   1.292       .  A
O1296     Ni1303   1.955       .  S
O1296      C1306   1.291       .  A
O1297     Ni1303   1.877       .  S
O1297      C1307   1.269       .  A
O1298     Ni1303   1.877       .  S
O1298      C1308   1.265       .  A
O1299     Ni1304   1.975       .  S
O1299      C1308   1.295       .  A
O1300     Ni1304   1.964       .  S
O1300      C1307   1.293       .  A
O1301     Ni1304   1.895       .  S
O1301      C1306   1.273       .  A
O1302     Ni1304   1.885       .  S
O1302      C1305   1.270       .  A
Ni1303    Ni1304   2.377       .  S
C1305      C1487   1.481       .  S
C1306      C1494   1.498       .  S
C1307      C1477   1.484       .  S
C1308      C1524   1.525       .  S
O1309     Ni1317   1.948       .  S
O1309      C1319   1.290       .  A
O1310     Ni1317   1.955       .  S
O1310      C1320   1.291       .  A
O1311     Ni1317   1.882       .  S
O1311      C1321   1.270       .  A
O1312     Ni1317   1.884       .  S
O1312      C1322   1.269       .  A
O1313     Ni1318   1.973       .  S
O1313      C1322   1.295       .  A
O1314     Ni1318   1.959   1_545  S
O1314      C1321   1.292   1_545  A
O1315     Ni1318   1.891       .  S
O1315      C1320   1.272       .  A
O1316     Ni1318   1.882       .  S
O1316      C1319   1.270       .  A
Ni1317    Ni1318   2.378       .  S
C1319      C1504   1.474       .  S
C1320      C1514   1.506       .  S
C1321      C1534   1.485       .  S
C1322      C1464   1.517       .  S
O1323     Ni1331   1.964       .  S
O1323      C1333   1.294       .  A
O1324     Ni1331   1.970       .  S
O1324      C1334   1.294       .  A
O1325     Ni1331   1.884       .  S
O1325      C1335   1.270       .  A
O1326     Ni1331   1.896       .  S
O1326      C1336   1.273       .  A
O1327     Ni1332   1.967       .  S
O1327      C1336   1.293       .  A
O1328     Ni1332   1.953       .  S
O1328      C1335   1.292       .  A
O1329     Ni1332   1.892       .  S
O1329      C1334   1.272       .  A
O1330     Ni1332   1.873       .  S
O1330      C1333   1.268       .  A
Ni1331    Ni1332   2.384       .  S
C1333      C1484   1.493       .  S
C1334      C1497   1.495       .  S
C1335      C1454   1.481       .  S
C1336      C1467   1.493       .  S
O1337     Ni1345   1.946       .  S
O1337      C1347   1.289       .  A
O1338     Ni1345   1.950       .  S
O1338      C1348   1.291       .  A
O1339     Ni1345   1.883       .  S
O1339      C1349   1.271       .  A
O1340     Ni1345   1.881       .  S
O1340      C1350   1.271       .  A
O1341     Ni1346   1.963       .  S
O1341      C1350   1.292       .  A
O1342     Ni1346   1.955       .  S
O1342      C1349   1.291       .  A
O1343     Ni1346   1.895       .  S
O1343      C1348   1.273       .  A
O1344     Ni1346   1.882       .  S
O1344      C1347   1.271       .  A
Ni1345    Ni1346   2.385       .  S
C1347      C1434   1.476       .  S
C1348      C1424   1.497       .  S
C1349      C1457   1.480       .  S
C1350      C1444   1.491       .  S
O1351     Ni1359   1.958       .  S
O1351      C1361   1.294       .  A
O1352     Ni1359   1.961       .  S
O1352      C1362   1.294       .  A
O1353     Ni1359   1.883       .  S
O1353      C1363   1.270       .  A
O1354     Ni1359   1.882       .  S
O1354      C1364   1.270       .  A
O1355     Ni1360   1.970   1_655  S
O1355      C1364   1.294       .  A
O1356     Ni1360   1.954       .  S
O1356      C1363   1.291   1_455  A
O1357     Ni1360   1.880   1_655  S
O1357      C1362   1.268       .  A
O1358     Ni1360   1.870       .  S
O1358      C1361   1.265   1_455  A
Ni1359    Ni1360   2.379   1_655  S
C1361      C1414   1.493       .  S
C1362      C1404   1.510       .  S
C1363      C1627   1.479       .  S
C1364      C1447   1.487       .  S
O1365     Ni1373   1.958       .  S
O1365      C1375   1.293       .  A
O1366     Ni1373   1.963       .  S
O1366      C1376   1.293       .  A
O1367     Ni1373   1.888       .  S
O1367      C1377   1.271       .  A
O1368     Ni1373   1.896       .  S
O1368      C1378   1.273       .  A
O1369     Ni1374   1.962       .  S
O1369      C1378   1.292       .  A
O1370     Ni1374   1.953       .  S
O1370      C1377   1.291       .  A
O1371     Ni1374   1.889       .  S
O1371      C1376   1.272       .  A
O1372     Ni1374   1.871       .  S
O1372      C1375   1.268       .  A
Ni1373    Ni1374   2.384       .  S
C1375      C1437   1.490       .  S
C1376      C1427   1.491       .  S
C1377      C1474   1.483       .  S
C1378      C1394   1.492       .  S
O1379     Ni1387   1.955       .  S
O1379      C1389   1.292       .  A
O1380     Ni1387   1.959       .  S
O1380      C1390   1.293       .  A
O1381     Ni1387   1.877       .  S
O1382     Ni1387   1.885       .  S
O1382      C1392   1.268       .  A
O1383     Ni1388   1.971       .  S
O1384     Ni1388   1.970       .  S
O1384      C1391   1.295       .  A
O1385     Ni1388   1.892       .  S
O1386     Ni1388   1.870       .  S
C1391      C1557   1.488       .  S
C1392      C1397   1.527       .  S
C1393      C1394   1.413       .  A
C1393      C1398   1.418   1_556  A
C1393     Br1400   1.930       .  S
C1394      C1395   1.398   1_556  A
C1395      C1396   1.417       .  A
C1395     Br1402   1.935   1_554  S
C1396      C1397   1.443       .  A
C1396     Br1401   1.942       .  S
C1397      C1398   1.423       .  A
C1403      C1404   1.413       .  A
C1403      C1408   1.417       .  A
C1403     Br1410   1.936       .  S
C1404      C1405   1.429   1_655  A
C1406     Br1411   1.935       .  S
C1407      C1408   1.428       .  A
C1408     Br1409   1.934       .  S
C1413     Br1420   1.941       .  S
C1414      C1415   1.411       .  A
C1415     Br1422   1.934       .  S
C1416      C1417   1.416   1_655  A
C1416     Br1421   1.933       .  S
C1418     Br1419   1.938       .  S
C1423      C1424   1.412       .  A
C1423      C1428   1.410       .  A
C1423     Br1430   1.935       .  S
C1424      C1425   1.424       .  A
C1425      C1426   1.416       .  A
C1425     Br1432   1.933       .  S
C1426      C1427   1.406       .  A
C1426     Br1431   1.929       .  S
C1427      C1428   1.418       .  A
C1428     Br1429   1.932       .  S
C1433      C1434   1.403       .  A
C1434      C1435   1.415       .  A
C1435     Br1442   1.933       .  S
C1436     Br1441   1.931       .  S
C1437      C1438   1.425       .  A
C1438     Br1439   1.939       .  S
C1443      C1444   1.413       .  A
C1443      C1448   1.418   1_556  A
C1443     Br1450   1.930       .  S
C1444      C1445   1.416       .  A
C1445      C1446   1.408   1_556  A
C1445     Br1452   1.934       .  S
C1446      C1447   1.409       .  A
C1446     Br1451   1.933       .  S
C1447      C1448   1.415       .  A
C1448     Br1449   1.922       .  S
C1453      C1454   1.407       .  A
C1453      C1458   1.407       .  A
C1453     Br1460   1.933       .  S
C1454      C1455   1.419       .  A
C1455      C1456   1.412       .  A
C1455     Br1462   1.931       .  S
C1456      C1457   1.406       .  A
C1456     Br1461   1.930       .  S
C1457      C1458   1.416       .  A
C1458     Br1459   1.933       .  S
C1463      C1464   1.433       .  A
C1463      C1468   1.413       .  A
C1463     Br1470   1.937       .  S
C1464      C1465   1.420       .  A
C1465      C1466   1.419       .  A
C1466      C1467   1.416       .  A
C1466     Br1471   1.928       .  S
C1467      C1468   1.399       .  A
C1468     Br1469   1.928       .  S
C1473      C1474   1.407       .  A
C1473      C1478   1.408       .  A
C1473     Br1480   1.933       .  S
C1474      C1475   1.417       .  A
C1475      C1476   1.414       .  A
C1475     Br1482   1.930       .  S
C1476      C1477   1.408       .  A
C1476     Br1481   1.929       .  S
C1477      C1478   1.418       .  A
C1478     Br1479   1.933       .  S
C1483      C1488   1.414       .  A
C1483     Br1490   1.930       .  S
C1484      C1485   1.425       .  A
C1485     Br1492   1.939       .  S
C1486     Br1491   1.934       .  S
C1493      C1494   1.421       .  A
C1493      C1498   1.416       .  A
C1493     Br1500   1.933       .  S
C1494      C1495   1.411       .  A
C1495      C1496   1.413       .  A
C1495     Br1502   1.934       .  S
C1496      C1497   1.420       .  A
C1496     Br1501   1.929       .  S
C1497      C1498   1.407       .  A
C1498     Br1499   1.925       .  S
C1503     Br1510   1.927       .  S
C1504      C1505   1.402       .  A
C1505      C1506   1.405       .  A
C1505     Br1512   1.935       .  S
C1507      C1508   1.409       .  A
C1508     Br1509   1.929       .  S
C1513      C1514   1.416       .  A
C1513      C1518   1.413       .  A
C1513     Br1520   1.935       .  S
C1515      C1516   1.416       .  A
C1515     Br1522   1.933       .  S
C1516      C1517   1.406       .  A
C1516     Br1521   1.929       .  S
C1518     Br1519   1.936       .  S
C1523      C1524   1.444       .  A
C1523      C1528   1.415       .  A
C1523     Br1530   1.944       .  S
C1524      C1525   1.421       .  A
C1525      C1526   1.418       .  A
C1525     Br1532   1.934       .  S
C1526      C1527   1.417       .  A
C1526     Br1531   1.934       .  S
C1527      C1528   1.398       .  A
C1533      C1534   1.418       .  A
C1533      C1538   1.408       .  A
C1533     Br1540   1.935       .  S
C1534      C1535   1.408   1_565  A
C1535      C1536   1.414       .  A
C1535     Br1542   1.930       .  S
C1536      C1537   1.419   1_545  A
C1536     Br1541   1.931       .  S
C1537      C1538   1.408       .  A
C1543      C1544   1.406       .  A
C1543      C1548   1.417       .  A
C1543     Br1550   1.931       .  S
C1544      C1545   1.425       .  A
C1545      C1546   1.418       .  A
C1545     Br1552   1.934       .  S
C1546      C1547   1.411       .  A
C1546     Br1551   1.929       .  S
C1547      C1548   1.431       .  A
C1548     Br1549   1.936       .  S
C1553      C1554   1.416       .  A
C1553      C1558   1.411       .  A
C1553     Br1560   1.933       .  S
C1554      C1555   1.405   1_655  A
C1556     Br1561   1.932       .  S
C1557      C1558   1.407       .  A
C1558     Br1559   1.920       .  S
C1563      C1568   1.410       .  A
C1563     Br1570   1.931       .  S
C1564      C1565   1.418       .  A
C1565      C1566   1.408       .  A
C1565     Br1572   1.933       .  S
C1566      C1567   1.407       .  A
C1566     Br1571   1.933       .  S
C1568     Br1569   1.933       .  S
C1573      C1578   1.413       .  A
C1573     Br1580   1.928       .  S
C1574      C1575   1.409       .  A
C1575      C1576   1.421       .  A
C1575     Br1582   1.927       .  S
C1576     Br1581   1.930       .  S
C1577      C1578   1.412       .  A
C1578     Br1579   1.934       .  S
C1583     Br1590   1.930       .  S
C1585      C1586   1.407       .  A
C1585     Br1592   1.934       .  S
C1586     Br1591   1.939       .  S
C1587      C1588   1.411       .  A
C1593      C1594   1.423       .  A
C1593      C1598   1.414       .  A
C1593     Br1600   1.933       .  S
C1595      C1596   1.412       .  A
C1595     Br1602   1.934       .  S
C1596     Br1601   1.931       .  S
C1597      C1598   1.404       .  A
C1598     Br1599   1.929       .  S
C1603     Br1610   1.932       .  S
C1604      C1605   1.419       .  A
C1605      C1606   1.413       .  A
C1605     Br1612   1.933       .  S
C1606     Br1611   1.930       .  S
C1607      C1608   1.419       .  A
C1613      C1614   1.413       .  A
C1613      C1618   1.422       .  A
C1614      C1615   1.411       .  A
C1615      C1616   1.409       .  A
C1615     Br1622   1.935       .  S
C1616      C1617   1.416       .  A
C1616     Br1621   1.935       .  S
C1617      C1618   1.416       .  A
C1623      C1624   1.407       .  A
C1623      C1628   1.413       .  A
C1623     Br1630   1.928       .  S
C1625      C1626   1.409       .  A
C1625     Br1632   1.932       .  S
C1626     Br1631   1.933       .  S
C1627      C1628   1.415       .  A
C1628     Br1629   1.929       .  S
