geometry optimzed in LAMMPS
_audit_creation_date              2020-12-01 
_audit_creation_method            'lammps2cif' 
_symmetry_space_group_name_H-M    'P1' 
_symmetry_Int_Tables_number       1 
_symmetry_cell_setting            triclinic 
loop_ 
_symmetry_equiv_pos_as_xyz 
  x,y,z 
_cell_length_a                    23.71382268 
_cell_length_b                    23.65993121212624 
_cell_length_c                    24.49361162579789 
_cell_angle_alpha                 91.921100245322 
_cell_angle_beta                  92.14781251801163 
_cell_angle_gamma                 91.58655599327284 
loop_ 
_atom_site_label 
_atom_site_type_symbol 
_atom_site_fract_x 
_atom_site_fract_y 
_atom_site_fract_z 
_atom_site_charge 
C1          C  0.23654793  0.20325609  0.22222085     0.30200
C2          C  0.30258312  0.29062172  0.26432868     0.30200
C3          C  0.28562483  0.22106788  0.18660035    -0.06000
C4          C  0.20477307  0.25914140  0.23190717    -0.06800
C5          C  0.26501315  0.19435407  0.27880313    -0.06600
C6          C  0.31920621  0.26469808  0.20880341    -0.06000
C7          C  0.23867530  0.30202334  0.25609252    -0.06700
C8          C  0.29947968  0.23754805  0.30286357    -0.06600
C9          C  0.36251592  0.27396541  0.17333647    -0.32000
N10         N  0.35592840  0.23728907  0.12975885     0.14500
C11         C  0.30833482  0.20526220  0.13675777    -0.32000
H12         H  0.29227326  0.17229972  0.10817675     0.16400
C13         C  0.20433664  0.34629990  0.26933050    -0.31000
N14         N  0.15158344  0.33596348  0.24751378     0.13200
C15         C  0.15094085  0.28179624  0.22531262    -0.31000
C16         C  0.31075548  0.21784282  0.35696327    -0.31300
N17         N  0.28441995  0.16524712  0.36345108     0.13700
H18         H  0.33511158  0.24091968  0.38907683     0.16300
C19         C  0.25589439  0.15314009  0.31583376    -0.31300
H20         H  0.22868653  0.11601469  0.30890529     0.16300
H21         H  0.11453995  0.26068737  0.20496386     0.16300
H22         H  0.39711301  0.30461332  0.17894000     0.16400
H23         H  0.21754423  0.38477118  0.29198268     0.16300
N24         N  0.00381336  0.39100376  0.24213305    -0.36400
N25         N  0.09653350  0.48242072  0.25954565    -0.56900
N26         N  0.01128452  0.56758287  0.25348721    -0.36400
N27         N  0.91950704  0.47729855  0.24870488    -0.56900
C28         C  0.05028204  0.36127988  0.25546572     0.27200
C29         C  0.95724919  0.35884863  0.25328615     0.27200
C30         C  0.05763716  0.59973911  0.27114338     0.27200
C31         C  0.96445914  0.59775374  0.26340796     0.27200
C32         C  0.12341418  0.43663587  0.23926402     0.35800
C33         C  0.12961359  0.52921062  0.25031681     0.35800
C34         C  0.88596137  0.43103905  0.23394334     0.35800
C35         C  0.88998728  0.52378206  0.23555233     0.35800
C36         C  0.03314284  0.30992487  0.27597054    -0.21700
C37         C  0.97474552  0.30841242  0.27464116    -0.21700
C38         C  0.03955537  0.65049949  0.29328398    -0.21700
C39         C  0.98120273  0.64934856  0.28823562    -0.21700
C40         C  0.17266322  0.45511758  0.21583165    -0.22700
C41         C  0.17732825  0.51312453  0.22391581    -0.22700
C42         C  0.83544272  0.44840777  0.21095007    -0.22700
C43         C  0.83801092  0.50669649  0.21181531    -0.22700
C44         C  0.10732593  0.37822864  0.24639181    -0.18100
C45         C  0.89967316  0.37340127  0.24271005    -0.18100
C46         C  0.90730757  0.58147816  0.24767222    -0.18100
C47         C  0.11567880  0.58639902  0.26331123    -0.18100
H48         H  0.05978397  0.27695977  0.29089269     0.14800
H49         H  0.94839096  0.27414455  0.28852329     0.14800
H50         H  0.06571225  0.68519248  0.31080964     0.14800
H51         H  0.95418080  0.68292868  0.30131033     0.14800
H52         H  0.20114893  0.42949947  0.19321885     0.13100
H53         H  0.21053253  0.54048956  0.20952980     0.13100
H54         H  0.80057125  0.42191651  0.19438962     0.13100
H55         H  0.80521052  0.53338103  0.19624858     0.13100
H56         H  0.00431209  0.42889480  0.22168259     0.26400
H57         H  0.01141003  0.52988597  0.23034558     0.26400
C58         C  0.79214933  0.75971220  0.20683994     0.30200
C59         C  0.72780659  0.69789959  0.27241133     0.30200
C60         C  0.73088696  0.74386136  0.18443913    -0.06000
C61         C  0.81697661  0.70341245  0.22472912    -0.06800
C62         C  0.78014758  0.79067191  0.26356115    -0.06600
C63         C  0.69738927  0.71129505  0.21705322    -0.06000
C64         C  0.78369908  0.67149110  0.25597764    -0.06700
C65         C  0.74558971  0.75778645  0.29542841    -0.06600
C66         C  0.64357574  0.70784345  0.19050891    -0.32000
N67         N  0.64415968  0.73695542  0.14276805     0.14500
C68         C  0.69737436  0.75982131  0.14011956    -0.32000
H69         H  0.71087983  0.78751910  0.10853154     0.16400
C70         C  0.81322472  0.62296981  0.26820774    -0.31000
N71         N  0.86454129  0.62502456  0.24518026     0.13200
C72         C  0.86729416  0.67468979  0.21859464    -0.31000
C73         C  0.73384215  0.78815790  0.34266576    -0.31300
N74         N  0.76212229  0.83876117  0.34448651     0.13700
H75         H  0.70584151  0.77402361  0.37365596     0.16300
C76         C  0.78987659  0.84129697  0.29569455    -0.31300
H77         H  0.81514186  0.87738177  0.28405070     0.16300
H78         H  0.90313627  0.68894368  0.19610090     0.16300
H79         H  0.60644635  0.68689988  0.20559686     0.16400
H80         H  0.79857935  0.58874914  0.29277106     0.16300
N81         N  0.26164095  0.01942507  0.41635049    -0.36400
N82         N  0.26345632  0.10844554  0.50680959    -0.56900
N83         N  0.24245615  0.01868101  0.58324162    -0.36400
N84         N  0.25143241  0.93070390  0.49433250    -0.56900
C85         C  0.28657824  0.06463052  0.39240613     0.27200
C86         C  0.26693585  0.97218976  0.38303310     0.27200
C87         C  0.25006711  0.06502503  0.61762452     0.27200
C88         C  0.25892011  0.97279763  0.61123292     0.27200
C89         C  0.26472289  0.14142293  0.46190455     0.35800
C90         C  0.24186584  0.13957744  0.54898705     0.35800
C91         C  0.23796894  0.89891163  0.44798524     0.35800
C92         C  0.24151409  0.89765238  0.53764691     0.35800
C93         C  0.30906526  0.04479797  0.34384719    -0.21700
C94         C  0.29579897  0.98747046  0.33755364    -0.21700
C95         C  0.27244663  0.04871054  0.66737390    -0.21700
C96         C  0.27894740  0.99103459  0.66309365    -0.21700
C97         C  0.24392575  0.19386114  0.47570573    -0.22700
C98         C  0.22881220  0.19247854  0.52984677    -0.22700
C99         C  0.21916601  0.84560184  0.46232427    -0.22700
C100        C  0.22183967  0.84468404  0.51868442    -0.22700
C101        C  0.28244978  0.12424157  0.40818992    -0.18100
C102        C  0.24727473  0.91541119  0.39308786    -0.18100
C103        C  0.25065352  0.91446910  0.59400039    -0.18100
C104        C  0.23774250  0.12180386  0.60510501    -0.18100
H105        H  0.33138676  0.06955265  0.31471563     0.14800
H106        H  0.30690513  0.96000546  0.30363380     0.14800
H107        H  0.28425896  0.07569681  0.70272900     0.14800
H108        H  0.29593069  0.96531090  0.69514775     0.14800
H109        H  0.23846864  0.22904112  0.44908990     0.13100
H110        H  0.20979947  0.22676346  0.55212478     0.13100
H111        H  0.20527296  0.81061308  0.43508512     0.13100
H112        H  0.20972413  0.80917710  0.54279378     0.13100
H113        H  0.23702637  0.02169378  0.45057254     0.26400
H114        H  0.22158259  0.01797717  0.54502792     0.26400
N115        N  0.75763824  0.98515040  0.41201931    -0.36400
N116        N  0.74117459  0.89688351  0.48950065    -0.56900
N117        N  0.74498542  0.98681256  0.58056616    -0.36400
N118        N  0.74985729  0.07433084  0.50218097    -0.56900
C119        C  0.74880626  0.93880988  0.37764580     0.27200
C120        C  0.74136706  0.03124452  0.38430382     0.27200
C121        C  0.72088019  0.94115741  0.60416812     0.27200
C122        C  0.73690252  0.03369526  0.61348446     0.27200
C123        C  0.75840557  0.86444280  0.44622787     0.35800
C124        C  0.74218050  0.86435993  0.53455921     0.35800
C125        C  0.75778520  0.10713703  0.45828954     0.35800
C126        C  0.76150642  0.10751832  0.54818721     0.35800
C127        C  0.72643496  0.95554528  0.32806339    -0.21700
C128        C  0.72089778  0.01326783  0.33247173    -0.21700
C129        C  0.69610227  0.96012315  0.65181158    -0.21700
C130        C  0.70713577  0.01770158  0.65813091    -0.21700
C131        C  0.77089516  0.81117241  0.46457441    -0.22700
C132        C  0.76021170  0.81099139  0.51979103    -0.22700
C133        C  0.77444869  0.16130822  0.47662991    -0.22700
C134        C  0.77705950  0.16147211  0.53306412    -0.22700
C135        C  0.75915168  0.88149668  0.39001599    -0.18100
C136        C  0.74877579  0.08958572  0.40194837    -0.18100
C137        C  0.75396611  0.09095004  0.60344831    -0.18100
C138        C  0.72697278  0.88212387  0.58870659    -0.18100
H139        H  0.71356297  0.92880604  0.29283896     0.14800
H140        H  0.70348262  0.03903977  0.30067738     0.14800
H141        H  0.67327758  0.93473482  0.68008858     0.14800
H142        H  0.69353236  0.04492490  0.69121008     0.14800
H143        H  0.78647166  0.77589273  0.44094685     0.13100
H144        H  0.76617097  0.77570093  0.54615509     0.13100
H145        H  0.78444398  0.19710106  0.45205296     0.13100
H146        H  0.78884555  0.19752408  0.55979647     0.13100
H147        H  0.77842066  0.98583856  0.45026588     0.26400
H148        H  0.77058431  0.98510586  0.54696510     0.26400
C149        C  0.27158788  0.74523909  0.72536579     0.30200
C150        C  0.20867792  0.82208448  0.77604158     0.30200
C151        C  0.25954433  0.79800644  0.69149758    -0.06000
C152        C  0.21154045  0.72301167  0.73927131    -0.06800
C153        C  0.29553588  0.76898661  0.78095525    -0.06600
C154        C  0.22714583  0.83626743  0.71791554    -0.06000
C155        C  0.17875410  0.76233692  0.76643369    -0.06700
C156        C  0.26377790  0.80743592  0.80776627    -0.06600
C157        C  0.21860259  0.88073283  0.68340364    -0.32000
N158        N  0.24657481  0.87240482  0.63664806     0.14500
C159        C  0.27150167  0.82103246  0.64079583    -0.32000
H160        H  0.29730058  0.80227452  0.60992085     0.16400
C161        C  0.12965359  0.73252842  0.77996800    -0.31000
N162        N  0.13084802  0.67738312  0.76013926     0.13200
C163        C  0.18040229  0.67226194  0.73432818    -0.31000
C164        C  0.29101854  0.81833527  0.85902205    -0.31300
N165        N  0.33961657  0.78865173  0.86200861     0.13700
H166        H  0.27654595  0.84570311  0.89157780     0.16300
C167        C  0.34196432  0.75799898  0.81449359    -0.31300
H168        H  0.37496052  0.72881845  0.80539730     0.16300
H169        H  0.19245130  0.63413634  0.71271789     0.16300
H170        H  0.19441704  0.91778078  0.69217162     0.16400
H171        H  0.09593935  0.74976302  0.80337199     0.16300
N172        N  0.06928687  0.52712448  0.75977682    -0.36400
N173        N  0.97869531  0.43616154  0.75654177    -0.56900
N174        N  0.89386057  0.52082184  0.75677801    -0.36400
N175        N  0.98496517  0.61271465  0.77037728    -0.56900
C176        C  0.09914510  0.48078548  0.77327210     0.27200
C177        C  0.10204124  0.57457464  0.77269450     0.27200
C178        C  0.86121221  0.47309583  0.76312198     0.27200
C179        C  0.86632346  0.56590214  0.77757654     0.27200
C180        C  0.02531273  0.40576193  0.74667405     0.35800
C181        C  0.93296841  0.40377864  0.73814422     0.35800
C182        C  0.02930802  0.64564124  0.75548183     0.35800
C183        C  0.93783931  0.64222421  0.75982810     0.35800
C184        C  0.15138431  0.49933428  0.79558645    -0.21700
C185        C  0.15330069  0.55797324  0.79493482    -0.21700
C186        C  0.81231502  0.48799351  0.78833803    -0.21700
C187        C  0.81581812  0.54602475  0.79811582    -0.21700
C188        C  0.00910939  0.35436294  0.72124576    -0.22700
C189        C  0.95102928  0.35327556  0.71553950    -0.22700
C190        C  0.01002407  0.69544025  0.73444096    -0.22700
C191        C  0.95225841  0.69334245  0.73727782    -0.22700
C192        C  0.08217562  0.42233682  0.76244057    -0.18100
C193        C  0.08700026  0.63213553  0.76311277    -0.18100
C194        C  0.88223489  0.62472135  0.77235113    -0.18100
C195        C  0.87519675  0.41666012  0.74684152    -0.18100
H196        H  0.18501666  0.47335070  0.81065537     0.14800
H197        H  0.18837313  0.58522590  0.80972966     0.14800
H198        H  0.77798720  0.45999446  0.79923697     0.14800
H199        H  0.78400387  0.57089711  0.81739719     0.14800
H200        H  0.03630010  0.32111254  0.70774701     0.13100
H201        H  0.92503223  0.31880491  0.69734517     0.13100
H202        H  0.03465263  0.72946881  0.71778906     0.13100
H203        H  0.92420843  0.72546356  0.72307230     0.13100
H204        H  0.03075369  0.52618297  0.73794118     0.26400
H205        H  0.93031732  0.52338803  0.73447093     0.26400
C206        C  0.78438119  0.22211057  0.78411251     0.30200
C207        C  0.70346573  0.26872837  0.71974086     0.30200
C208        C  0.72500896  0.22549777  0.80829079    -0.06000
C209        C  0.79733318  0.28287522  0.76484349    -0.06800
C210        C  0.77083151  0.18833210  0.72783380    -0.06600
C211        C  0.68581192  0.25083014  0.77624019    -0.06000
C212        C  0.75665374  0.30840451  0.73293908    -0.06700
C213        C  0.72967016  0.21397340  0.69515747    -0.06600
C214        C  0.63666527  0.25429465  0.80468637    -0.32000
N215        N  0.64296323  0.22909221  0.85310801     0.14500
C216        C  0.69741201  0.21065322  0.85557319    -0.32000
H217        H  0.71612431  0.18830166  0.88921788     0.16400
C218        C  0.77985104  0.36277171  0.72288554    -0.31000
N219        N  0.83301892  0.36943064  0.74761976     0.13200
C220        C  0.84287123  0.32047892  0.77318912    -0.31000
C221        C  0.72162967  0.18163896  0.64688275    -0.31300
N222        N  0.75393403  0.13503733  0.64810867     0.13700
H223        H  0.69348582  0.19127822  0.61287232     0.16300
C224        C  0.78406807  0.13851277  0.69762757    -0.31300
H225        H  0.81348355  0.10717563  0.71089132     0.16300
H226        H  0.88133226  0.31234914  0.79646426     0.16300
H227        H  0.59892603  0.27517719  0.79144413     0.16400
H228        H  0.75990641  0.39432491  0.69834793     0.16300
N229        N  0.49349801  0.75377092  0.08729597    -0.36400
N230        N  0.57738921  0.76044339  0.00285899    -0.56900
N231        N  0.48586397  0.77733358  0.92075530    -0.36400
N232        N  0.40220575  0.78098542  0.00519904    -0.56900
C233        C  0.54263209  0.75866225  0.11836171     0.27200
C234        C  0.45037683  0.77068183  0.11877263     0.27200
C235        C  0.53190903  0.78762907  0.89087439     0.27200
C236        C  0.44029380  0.79689429  0.89269076     0.27200
C237        C  0.60986868  0.73992406  0.04441177     0.35800
C238        C  0.60568488  0.75248022  0.95589088     0.35800
C239        C  0.37194933  0.76309956  0.04759979     0.35800
C240        C  0.36771870  0.77473942  0.95963973     0.35800
C241        C  0.53060125  0.77966749  0.16992092    -0.21700
C242        C  0.47304826  0.78789813  0.17001179    -0.21700
C243        C  0.51543700  0.81450807  0.84370057    -0.21700
C244        C  0.45779802  0.82047807  0.84491175    -0.21700
C245        C  0.65865626  0.71843382  0.02323896    -0.22700
C246        C  0.65616332  0.72672271  0.96765739    -0.22700
C247        C  0.31851783  0.74459607  0.02840748    -0.22700
C248        C  0.31566255  0.75268560  0.97299681    -0.22700
C249        C  0.59783234  0.74385243  0.10150402    -0.18100
C250        C  0.39097142  0.76665681  0.10358293    -0.18100
C251        C  0.38281018  0.78856718  0.90607571    -0.18100
C252        C  0.58773015  0.76980687  0.90273233    -0.18100
H253        H  0.56029355  0.78918831  0.20381652     0.14800
H254        H  0.45071416  0.80504162  0.20423815     0.14800
H255        H  0.54209605  0.82772289  0.81127921     0.14800
H256        H  0.43156521  0.83903097  0.81355055     0.14800
H257        H  0.69268917  0.69859755  0.04534316     0.13100
H258        H  0.68780937  0.71475644  0.93907312     0.13100
H259        H  0.28514744  0.72592658  0.05139841     0.13100
H260        H  0.27988267  0.74198961  0.94551236     0.13100
H261        H  0.48873295  0.73461502  0.04843780     0.26400
H262        H  0.48464861  0.75218958  0.95472480     0.26400
N263        N  0.49852597  0.22194114  0.07300531    -0.36400
N264        N  0.41022882  0.23939921  0.98752887    -0.56900
N265        N  0.49683258  0.24339153  0.90661202    -0.36400
N266        N  0.58485457  0.21561374  0.99232553    -0.56900
C267        C  0.45113054  0.21333530  0.10133626     0.27200
C268        C  0.54291224  0.20379802  0.10389109     0.27200
C269        C  0.44879969  0.23931139  0.87383786     0.27200
C270        C  0.54057985  0.22432277  0.87716424     0.27200
C271        C  0.37970053  0.24699222  0.03293203     0.35800
C272        C  0.37913449  0.25935799  0.94495333     0.35800
C273        C  0.61781990  0.22327731  0.03871584     0.35800
C274        C  0.61668477  0.23215634  0.95057296     0.35800
C275        C  0.46548225  0.18896731  0.15046354    -0.21700
C276        C  0.52321167  0.18275096  0.15198059    -0.21700
C277        C  0.46208596  0.21706429  0.82316084    -0.21700
C278        C  0.51932102  0.20681358  0.82545227    -0.21700
C279        C  0.32899004  0.27135754  0.01920471    -0.22700
C280        C  0.32883992  0.27972612  0.96387449    -0.22700
C281        C  0.67035044  0.24502860  0.02646232    -0.22700
C282        C  0.66948448  0.25122413  0.97086525    -0.22700
C283        C  0.39600312  0.23136135  0.08665617    -0.18100
C284        C  0.60105313  0.21089134  0.09206139    -0.18100
C285        C  0.59958541  0.22725538  0.89431131    -0.18100
C286        C  0.39332571  0.25499839  0.88869878    -0.18100
H287        H  0.43734539  0.17776353  0.18243179     0.14800
H288        H  0.54796233  0.16575999  0.18529818     0.14800
H289        H  0.43335241  0.20804386  0.78839670     0.14800
H290        H  0.54253716  0.18849778  0.79237471     0.14800
H291        H  0.29572053  0.28247517  0.04631432     0.13100
H292        H  0.29531823  0.29885726  0.94046996     0.13100
H293        H  0.70515411  0.25693613  0.05470738     0.13100
H294        H  0.70364305  0.26928619  0.94850028     0.13100
H295        H  0.50120314  0.24544203  0.03808574     0.26400
H296        H  0.50072209  0.26332728  0.94516197     0.26400
C297        C  0.69567395  0.71796277  0.72848023     0.30200
C298        C  0.75727230  0.80345175  0.77896303     0.30200
C299        C  0.66854850  0.74596703  0.77946084    -0.06000
C300        C  0.75539872  0.70408291  0.75021160    -0.06800
C301        C  0.70764790  0.76915396  0.69094716    -0.06600
C302        C  0.70109931  0.78862554  0.80625054    -0.06000
C303        C  0.78738661  0.74631526  0.77682819    -0.06700
C304        C  0.73935787  0.81172885  0.71847734    -0.06600
C305        C  0.67598608  0.80063925  0.85577194    -0.32000
N306        N  0.62732641  0.76900602  0.85835688     0.14500
C307        C  0.62192342  0.73640581  0.81138831    -0.32000
H308        H  0.58737824  0.70633844  0.80213638     0.16400
C309        C  0.83901521  0.72202480  0.79105763    -0.31000
N310        N  0.83810456  0.66661641  0.77223470     0.13200
C311        C  0.78747720  0.65664081  0.74675504    -0.31000
C312        C  0.75089972  0.85361322  0.68259550    -0.31300
N313        N  0.72558619  0.84135403  0.63310605     0.13700
H314        H  0.77587412  0.89181018  0.69218189     0.16300
C315        C  0.69911731  0.78894448  0.63721487    -0.31300
H316        H  0.67481908  0.76714576  0.60426490     0.16300
H317        H  0.77571250  0.61726217  0.72552286     0.16300
H318        H  0.69250561  0.82936467  0.88815866     0.16400
H319        H  0.87470312  0.74340611  0.81238611     0.16300
C320        C  0.71271191  0.25657850  0.27219165     0.30200
C321        C  0.77915581  0.18463819  0.21908328     0.30200
C322        C  0.68881203  0.23209781  0.21691750    -0.06000
C323        C  0.77111159  0.28317417  0.25666715    -0.06800
C324        C  0.73020804  0.20469457  0.30495992    -0.06600
C325        C  0.72204400  0.19574516  0.18909778    -0.06000
C326        C  0.80559253  0.24565893  0.22882271    -0.06700
C327        C  0.76388809  0.16879939  0.27744813    -0.06600
C328        C  0.69372176  0.18323446  0.13871789    -0.32000
N329        N  0.64355664  0.21045853  0.13681014     0.14500
C330        C  0.64096335  0.24088859  0.18446480    -0.32000
H331        H  0.60720697  0.26895033  0.19422451     0.16400
C332        C  0.85585019  0.27536072  0.21953468    -0.31000
N333        N  0.85419999  0.32922591  0.24183161     0.13200
C334        C  0.80249881  0.33380098  0.26469759    -0.31000
C335        C  0.77684758  0.12519742  0.31175096    -0.31300
N336        N  0.75004361  0.13182815  0.35942431     0.13700
H337        H  0.80293014  0.08974384  0.30214776     0.16300
C338        C  0.72174924  0.18127974  0.35604981    -0.31300
H339        H  0.69570630  0.19825698  0.38764792     0.16300
H340        H  0.78925421  0.37092403  0.28719386     0.16300
H341        H  0.70895612  0.15710196  0.10560797     0.16400
H342        H  0.89128272  0.25866722  0.19827020     0.16300
C343        C  0.25725763  0.30438179  0.72375086     0.30200
C344        C  0.19729680  0.23948428  0.79017019     0.30200
C345        C  0.29133506  0.28832080  0.77605840    -0.06000
C346        C  0.20314039  0.33031543  0.74525962    -0.06800
C347        C  0.23837020  0.24552364  0.69925049    -0.06600
C348        C  0.26009897  0.25342398  0.80835120    -0.06000
C349        C  0.17146042  0.29695705  0.77623554    -0.06700
C350        C  0.20623573  0.21047153  0.73141960    -0.06600
C351        C  0.29574534  0.23486537  0.84952171    -0.32000
N352        N  0.34778437  0.25988369  0.84663191     0.14500
C353        C  0.34599130  0.29205093  0.80081508    -0.32000
H354        H  0.38157499  0.31614183  0.78642263     0.16400
C355        C  0.12256407  0.32694733  0.78750747    -0.31000
N356        N  0.12504096  0.37860928  0.76405798     0.13200
C357        C  0.17463273  0.38068276  0.73841186    -0.31000
C358        C  0.20140687  0.15898467  0.69930255    -0.31300
N359        N  0.22954755  0.16365299  0.65064692     0.13700
H360        H  0.18052571  0.12049982  0.71166203     0.16300
C361        C  0.25399222  0.21593837  0.65305605    -0.31300
H362        H  0.28314952  0.23160728  0.62375754     0.16300
H363        H  0.18831387  0.41624979  0.71531359     0.16300
H364        H  0.28394619  0.20556712  0.88043524     0.16400
H365        H  0.08776884  0.31192481  0.81100146     0.16300
C366        C  0.29170454  0.73170488  0.28308725     0.30200
C367        C  0.21043453  0.77729195  0.21855624     0.30200
C368        C  0.30836590  0.74586044  0.22525839    -0.06000
C369        C  0.23693582  0.69284493  0.27290947    -0.06800
C370        C  0.26746864  0.78852956  0.30552786    -0.06600
C371        C  0.26886341  0.77080762  0.19330583    -0.06000
C372        C  0.19606441  0.71815716  0.24091669    -0.06700
C373        C  0.22627961  0.81364898  0.27261060    -0.06600
C374        C  0.29511628  0.78393642  0.14501750    -0.32000
N375        N  0.34908228  0.76450586  0.14627331     0.14500
C376        C  0.35657486  0.74048136  0.19543250    -0.32000
H377        H  0.39447328  0.71971615  0.20865158     0.16400
C378        C  0.14935562  0.68162327  0.23473659    -0.31000
N379        N  0.15852752  0.63320343  0.26145997     0.13200
C380        C  0.21249752  0.63933545  0.28484911    -0.31000
C381        C  0.21489129  0.86531949  0.30064468    -0.31300
N382        N  0.24651780  0.87061744  0.34916726     0.13700
H383        H  0.18543193  0.89638457  0.28687810     0.16300
C384        C  0.27739115  0.82316222  0.35204167    -0.31300
H385        H  0.30529562  0.81420115  0.38644524     0.16300
H386        H  0.23245265  0.60782599  0.30942682     0.16300
H387        H  0.27595740  0.80645425  0.11171324     0.16400
H388        H  0.11085221  0.68991478  0.21160088     0.16300
C389        C  0.11163864  0.83383210  0.02098766     0.42700
N390        N  0.06724468  0.89255763  0.97122817     0.01600
C391        C  0.07092394  0.17049373  0.02696818    -0.06300
H392        H  0.04061434  0.02715642  0.19700555     0.07100
C393        C  0.86620423  0.96837813  0.11434418    -0.06700
Co394      Co  0.10993893  0.00537191  0.00623102     0.74200
N395        N  0.06284241  0.01979058  0.11399592    -0.25800
Co396      Co  0.00344210  0.06771106  0.07405064     0.74100
C397        C  0.88922239  0.98640621  0.16924254     0.42800
N398        N  0.89919543  0.91314033  0.98673284     0.01200
N399        N  0.94382222  0.01556884  0.10766577     0.01300
N400        N  0.14371785  0.12414912  0.99325541    -0.46700
H401        H  0.17807029  0.90058194  0.04874440     0.07000
N402        N  0.10580657  0.99809783  0.08949899     0.01600
N403        N  0.94153576  0.11137142  0.02925465     0.01300
C404        C  0.89778099  0.16826778  0.97680762     0.42900
N405        N  0.94190334  0.88715173  0.96555141    -0.25300
C406        C  0.13888424  0.03875654  0.88801758    -0.06200
N407        N  0.06552516  0.83985093  0.98771582    -0.46400
N408        N  0.94456325  0.16291780  0.00956700    -0.46600
C409        C  0.11307809  0.02406317  0.83319353     0.42700
N410        N  0.10949945  0.09016125  0.01820975     0.01600
N411        N  0.94363013  0.98256143  0.88893183    -0.25300
N412        N  0.11111307  0.92079362  0.99335701    -0.25800
N413        N  0.90124693  0.00450747  0.91396892     0.01200
H414        H  0.96390445  0.97432504  0.80530413     0.07100
H415        H  0.83072303  0.10148854  0.95152622     0.07100
N416        N  0.06664307  0.11575959  0.03931259    -0.25900
N417        N  0.90115265  0.99176886  0.07952037    -0.25500
N418        N  0.06260212  0.98966347  0.89561648     0.01600
C419        C  0.12711184  0.99406384  0.17557122     0.43000
C420        C  0.93922384  0.83321508  0.98141100    -0.06700
N421        N  0.89716980  0.08293151  0.00828034    -0.25500
H422        H  0.82512179  0.94975853  0.10282328     0.07100
N423        N  0.14403362  0.97966749  0.12466239    -0.46700
H424        H  0.96956348  0.80107411  0.97369684     0.07100
C425        C  0.87767303  0.00738064  0.82842918     0.42800
C426        C  0.14432668  0.88630938  0.02017688    -0.06200
Co427      Co  0.00411168  0.93585281  0.92875274     0.73800
N428        N  0.86683663  0.88035579  0.01497645    -0.46400
C429        C  0.12032487  0.17490719  0.99325646     0.43100
N430        N  0.06190868  0.00238830  0.84394823    -0.46400
Co431      Co  0.89818035  0.99811033  0.99694225     0.73900
C432        C  0.86473054  0.11642653  0.97946592    -0.06700
C433        C  0.06847590  0.01040811  0.16702466    -0.06300
N434        N  0.10608376  0.01280708  0.92324892    -0.25800
N435        N  0.94150104  0.00642143  0.16004775    -0.46600
H436        H  0.04051065  0.20241273  0.03547392     0.07100
C437        C  0.93652874  0.99099560  0.83579010    -0.06700
Cl438      Cl  0.00404217  0.00168730  0.00152987    -0.49700
C439        C  0.89062196  0.82996548  0.01636883     0.42800
H440        H  0.17959412  0.05874812  0.89857144     0.07000
N441        N  0.86223211  0.02259193  0.87949232    -0.46400
C442        C  0.53736741  0.36525993  0.36423793     0.42700
N443        N  0.54068219  0.39865354  0.44516441     0.01600
C444        C  0.31164134  0.50688250  0.56427043    -0.06300
H445        H  0.37355293  0.55793403  0.35885907     0.07100
C446        C  0.52132169  0.65246147  0.42614529    -0.06700
Co447      Co  0.42774765  0.40740164  0.49107857     0.74200
N448        N  0.38440368  0.50242820  0.42678758    -0.25800
Co449      Co  0.40489836  0.55021028  0.49842887     0.74100
C450        C  0.46935021  0.66091549  0.39323336     0.42800
N451        N  0.60406391  0.55011381  0.48146460     0.01200
N452        N  0.44993751  0.60727529  0.45756552     0.01300
N453        N  0.32509210  0.41288559  0.55834491    -0.46700
H454        H  0.44737995  0.32744299  0.37452459     0.07000
N455        N  0.38844252  0.44695816  0.42814001     0.01600
N456        N  0.42998245  0.58998532  0.57063227     0.01300
C457        C  0.43490823  0.60914725  0.65654411     0.42900
N458        N  0.61169919  0.49634717  0.47059430    -0.25300
C459        C  0.45933189  0.34220161  0.59957568    -0.06200
N460        N  0.57081911  0.39201925  0.40211098    -0.46400
N461        N  0.40015610  0.59089256  0.61461867    -0.46600
C462        C  0.51420669  0.33689806  0.62865950     0.42700
N463        N  0.36757208  0.44091605  0.53866396     0.01600
N464        N  0.59595158  0.48126073  0.58325751    -0.25300
N465        N  0.48872804  0.37844154  0.43873707    -0.25800
N466        N  0.57632635  0.53157932  0.59274048     0.01200
H467        H  0.65175614  0.42879679  0.62945002     0.07100
H468        H  0.52824643  0.63578285  0.65496890     0.07100
N469        N  0.35944962  0.49552168  0.54025048    -0.25900
N470        N  0.50417633  0.61846756  0.46597354    -0.25500
N471        N  0.52727654  0.38252015  0.55760279     0.01600
C472        C  0.37601434  0.46200455  0.34350989     0.43000
C473        C  0.65501919  0.49080008  0.43787429    -0.06700
N474        N  0.48288484  0.60495177  0.58140043    -0.25500
H475        H  0.56424078  0.66656931  0.41964779     0.07100
N476        N  0.38146923  0.42172614  0.38015903    -0.46700
H477        H  0.67241863  0.45153128  0.42338746     0.07100
C478        C  0.62370902  0.51404996  0.66570082     0.42800
C479        C  0.48389188  0.35186013  0.38970388    -0.06200
Co480      Co  0.56977447  0.43839592  0.51327368     0.73800
N481        N  0.64147757  0.58289485  0.45950021    -0.46400
C482        C  0.28895788  0.45216144  0.57583455     0.43100
N483        N  0.55329723  0.36126641  0.59930030    -0.46400
Co484      Co  0.54303517  0.57809210  0.53066768     0.73900
C485        C  0.48945548  0.62073429  0.63409196    -0.06700
C486        C  0.37553644  0.51598250  0.37420356    -0.06300
N487        N  0.47230660  0.37248578  0.55564424    -0.25800
N488        N  0.42754935  0.63299409  0.41630833    -0.46600
H489        H  0.29375403  0.54814656  0.56984714     0.07100
C490        C  0.62716760  0.46648272  0.62673913    -0.06700
Cl491      Cl  0.48613965  0.49357603  0.50797940    -0.49700
C492        C  0.67466131  0.54847902  0.43134276     0.42800
H493        H  0.41747870  0.32883541  0.61083029     0.07000
N494        N  0.58753705  0.54999468  0.64288851    -0.46400
C495        C  0.16446180  0.74775426  0.12866368    -0.13100
C496        C  0.16765877  0.78835484  0.17283915     0.09000
C497        C  0.13351890  0.83538583  0.17014365    -0.13100
C498        C  0.10274298  0.84462757  0.12129991    -0.13100
C499        C  0.10886514  0.80871683  0.07454985     0.09000
C500        C  0.13558512  0.75790739  0.08011053    -0.13100
H501        H  0.18903344  0.70984174  0.12998994     0.13000
H502        H  0.13317517  0.86617526  0.20372309     0.13000
H503        H  0.08039422  0.88363292  0.11751323     0.13000
H504        H  0.14073972  0.72971634  0.04495539     0.13000
C505        C  0.38665177  0.75463528  0.32986996    -0.13100
C506        C  0.34575426  0.71268213  0.31099119     0.09000
C507        C  0.36611988  0.65921219  0.29638015    -0.13100
C508        C  0.42314336  0.64743702  0.30618968    -0.13100
C509        C  0.45715236  0.68449104  0.34045297     0.09000
C510        C  0.44157389  0.74057385  0.34487435    -0.13100
H511        H  0.37771648  0.79901658  0.33137800     0.13000
H512        H  0.33885757  0.62788954  0.27461794     0.13000
H513        H  0.43665985  0.60474641  0.29781661     0.13000
H514        H  0.46894795  0.77183530  0.36666844     0.13000
C515        C  0.30407528  0.39437708  0.69985314    -0.13100
C516        C  0.27593115  0.34383397  0.68192925     0.09000
C517        C  0.23770717  0.34466027  0.63576733    -0.13100
C518        C  0.22417297  0.39466312  0.61257079    -0.13100
C519        C  0.25990552  0.44084506  0.62378703     0.09000
C520        C  0.29505522  0.44343842  0.67132960    -0.13100
H521        H  0.32994449  0.39656158  0.73725198     0.13000
H522        H  0.21052398  0.30892537  0.62291861     0.13000
H523        H  0.19496038  0.39354358  0.57731554     0.13000
H524        H  0.32120578  0.48084101  0.68157407     0.13000
C525        C  0.12833545  0.17729557  0.84324716    -0.13100
C526        C  0.16706653  0.22234860  0.84057872     0.09000
C527        C  0.17516350  0.26025127  0.88693656    -0.13100
C528        C  0.15260243  0.24904570  0.93645588    -0.13100
C529        C  0.11892248  0.20114019  0.94062621     0.09000
C530        C  0.10297646  0.16773772  0.89316837    -0.13100
H531        H  0.11853967  0.14969486  0.80784215     0.13000
H532        H  0.20175607  0.29811666  0.88539459     0.13000
H533        H  0.16552741  0.27500121  0.97231952     0.13000
H534        H  0.07509035  0.13111655  0.89636559     0.13000
C535        C  0.86531753  0.12894915  0.21852963    -0.13100
C536        C  0.81040291  0.13560417  0.19715894     0.09000
C537        C  0.77736704  0.08630984  0.18197486    -0.13100
C538        C  0.79958678  0.03302500  0.18466109    -0.13100
C539        C  0.85636115  0.02764468  0.19988750     0.09000
C540        C  0.88641566  0.07524904  0.22358835    -0.13100
H541        H  0.88983127  0.16457320  0.23643698     0.13000
H542        H  0.73273400  0.08786411  0.17202581     0.13000
H543        H  0.77385873  0.99671688  0.16999789     0.13000
H544        H  0.92940678  0.07187183  0.23952812     0.13000
C545        C  0.65829209  0.34500131  0.28498560    -0.13100
C546        C  0.66612982  0.28826761  0.29666102     0.09000
C547        C  0.61938968  0.25516611  0.31303460    -0.13100
C548        C  0.56870605  0.27938136  0.32393976    -0.13100
C549        C  0.56438592  0.33732790  0.32009146     0.09000
C550        C  0.60716385  0.36934416  0.29614673    -0.13100
H551        H  0.69086821  0.37015014  0.26679236     0.13000
H552        H  0.62115344  0.20970192  0.31560485     0.13000
H553        H  0.53574303  0.25409835  0.34169292     0.13000
H554        H  0.60355806  0.41467472  0.29268702     0.13000
C555        C  0.69085472  0.63896648  0.65866372    -0.13100
C556        C  0.67102552  0.66150276  0.70813721     0.09000
C557        C  0.65806060  0.62277799  0.74937549    -0.13100
C558        C  0.66235915  0.56490994  0.74079601    -0.13100
C559        C  0.67308186  0.54372781  0.68896297     0.09000
C560        C  0.69740186  0.58055611  0.65162906    -0.13100
H561        H  0.70691982  0.66657472  0.62814588     0.13000
H562        H  0.65067473  0.63641062  0.79077243     0.13000
H563        H  0.64792700  0.53683405  0.77179770     0.13000
H564        H  0.70957144  0.56423780  0.61204244     0.13000
C565        C  0.76002993  0.90342281  0.81563982    -0.13100
C566        C  0.78982422  0.85561309  0.79850402     0.09000
C567        C  0.84295239  0.86415124  0.77629291    -0.13100
C568        C  0.86572787  0.91821610  0.77250452    -0.13100
C569        C  0.84076145  0.96417264  0.79928985     0.09000
C570        C  0.78544417  0.95706263  0.81658566    -0.13100
H571        H  0.71644136  0.90015915  0.82661984     0.13000
H572        H  0.86421843  0.82973674  0.75632082     0.13000
H573        H  0.90574068  0.92269173  0.75315669     0.16200
H574        H  0.76360077  0.99220786  0.83476296     0.13000
C575        C  0.86398260  0.24240418  0.92095537    -0.13100
C576        C  0.89661357  0.19486707  0.92369614     0.09000
C577        C  0.90182826  0.16021453  0.87587647    -0.13100
C578        C  0.86676406  0.16759501  0.82909678    -0.13100
C579        C  0.82769085  0.21079501  0.82964860     0.09000
C580        C  0.82922682  0.24957739  0.87525269    -0.13100
H581        H  0.85899152  0.26945877  0.95695832     0.13000
H582        H  0.92754576  0.12315389  0.87742152     0.13000
H583        H  0.86835148  0.13836657  0.79434302     0.13000
H584        H  0.80093374  0.28475996  0.87651208     0.13000
C585        C  0.60852579  0.24627901  0.67493150    -0.13100
C586        C  0.64943631  0.28859435  0.69277582     0.09000
C587        C  0.62909216  0.34110154  0.71088785    -0.13100
C588        C  0.57104362  0.35088831  0.70871877    -0.13100
C589        C  0.53379359  0.31283063  0.67891839     0.09000
C590        C  0.55135780  0.25787469  0.66971578    -0.13100
H591        H  0.61933857  0.20266861  0.66872166     0.13000
H592        H  0.65739596  0.37267852  0.73089123     0.13000
H593        H  0.55742437  0.39303842  0.71947641     0.13000
H594        H  0.52256452  0.22614513  0.65052303     0.13000
C595        C  0.21762159  0.92059404  0.81312640    -0.13100
C596        C  0.18098958  0.87411431  0.79675772     0.09000
C597        C  0.12770972  0.88578782  0.77389488    -0.13100
C598        C  0.11132320  0.94155192  0.76986382    -0.13100
C599        C  0.14377986  0.98571149  0.79712794     0.09000
C600        C  0.19979254  0.97568126  0.81183473    -0.13100
H601        H  0.26174330  0.91545884  0.82352011     0.13000
H602        H  0.10098270  0.85227155  0.75488200     0.13000
H603        H  0.06905806  0.94896827  0.75379428     0.13000
H604        H  0.22779632  0.00945592  0.82843035     0.13000
C605        C  0.36470227  0.73185850  0.68798631    -0.13100
C606        C  0.31409291  0.70626650  0.70466643     0.09000
C607        C  0.31541411  0.65119754  0.72449797    -0.13100
C608        C  0.36373862  0.62034239  0.72087801    -0.13100
C609        C  0.41088212  0.64424298  0.69723117     0.09000
C610        C  0.41350784  0.70176245  0.68691569    -0.13100
H611        H  0.36776625  0.77633130  0.67933334     0.13000
H612        H  0.28070910  0.63243369  0.74520685     0.13000
H613        H  0.36212730  0.57587627  0.73021777     0.13000
H614        H  0.45069438  0.72128093  0.67024020     0.13000
C615        C  0.66292137  0.57059130  0.33586240    -0.13100
C616        C  0.69755789  0.57055175  0.38365360     0.09000
C617        C  0.73757883  0.61318987  0.39532105    -0.13100
C618        C  0.73930102  0.65900108  0.36289665    -0.13100
C619        C  0.70492462  0.66074637  0.31452061     0.09000
C620        C  0.66752278  0.61528025  0.30047105    -0.13100
H621        H  0.63010854  0.53823267  0.32803281     0.13000
H622        H  0.76348330  0.61398799  0.43284708     0.13000
H623        H  0.77236380  0.69045183  0.37298298     0.13000
H624        H  0.64308603  0.61370172  0.26228489     0.13000
C625        C  0.86532673  0.82464404  0.16295328    -0.13100
C626        C  0.82770613  0.77819779  0.16054287     0.09000
C627        C  0.82685040  0.74067928  0.11394550    -0.13100
C628        C  0.85707739  0.75258784  0.06850727    -0.13100
C629        C  0.88912100  0.80219806  0.06835001     0.09000
C630        C  0.89718867  0.83569739  0.11716126    -0.13100
H631        H  0.86938457  0.85231118  0.19904062     0.13000
H632        H  0.80062486  0.70236117  0.11199642     0.13000
H633        H  0.85031411  0.72635026  0.03158181     0.13000
H634        H  0.92399775  0.87345259  0.11763914     0.13000
C635        C  0.31651781  0.39485921  0.24484103    -0.13100
C636        C  0.33698260  0.34612251  0.27133477     0.09000
C637        C  0.39566641  0.34789388  0.28216234    -0.13100
C638        C  0.42453879  0.40103952  0.28270159    -0.13100
C639        C  0.39180140  0.44982538  0.28703224     0.09000
C640        C  0.34401354  0.44741207  0.25294454    -0.13100
H641        H  0.28046070  0.39248934  0.21707010     0.13000
H642        H  0.41839026  0.30925700  0.28720502     0.13000
H643        H  0.46942018  0.40446433  0.29084960     0.13000
H644        H  0.32346403  0.48553588  0.24066546     0.13000
C645        C  0.13596758  0.08121240  0.23520360    -0.13100
C646        C  0.16251088  0.03730929  0.20654542     0.09000
C647        C  0.21677125  0.04790378  0.18831479    -0.13100
C648        C  0.23811196  0.10297536  0.18807068    -0.13100
C649        C  0.20560282  0.14901828  0.20548358     0.09000
C650        C  0.15471315  0.13689176  0.23066410    -0.13100
H651        H  0.09713938  0.07363262  0.25590138     0.13000
H652        H  0.24050114  0.01438851  0.16962507     0.13000
H653        H  0.28131857  0.10861140  0.17659317     0.13000
H654        H  0.13221558  0.16980470  0.25155990     0.13000
loop_ 
_geom_bond_atom_site_label_1 
_geom_bond_atom_site_label_2 
_geom_bond_distance 
_geom_bond_site_symmetry_2 
_ccdc_geom_bond_type 
C1            C3   1.538       .  S
C1            C5   1.542       .  S
C1            C4   1.556       .  S
C1          C649   1.498       .  S
C2            C6   1.542       .  S
C2            C8   1.598       .  S
C2            C7   1.554       .  S
C2          C636   1.528       .  S
C3           C11   1.396       .  A
C3            C6   1.371       .  A
C4           C15   1.404       .  A
C4            C7   1.380       .  A
C5           C19   1.372       .  A
C5            C8   1.392       .  A
C6            C9   1.387       .  A
C7           C13   1.382       .  A
C8           C16   1.438       .  A
C9           N10   1.354       .  A
C9           H22   1.082       .  S
N10          C11   1.361       .  A
N10         C283   1.453       .  S
C11          H12   1.082       .  S
C13          N14   1.354       .  A
C13          H23   1.082       .  S
N14          C15   1.375       .  A
N14          C44   1.470       .  S
C15          H21   1.082       .  S
C16          N17   1.393       .  A
C16          H18   1.082       .  S
N17          C19   1.344       .  A
N17         C101   1.489       .  S
C19          H20   1.080       .  S
N24          C29   1.365   1_455  A
N24          C28   1.359       .  A
N24          H56   1.042       .  S
N25          C32   1.361       .  A
N25          C33   1.369       .  A
N26          C31   1.362   1_455  A
N26          C30   1.368       .  A
N26          H57   1.041       .  S
N27          C34   1.366       .  A
N27          C35   1.361       .  A
C28          C36   1.387       .  A
C28          C44   1.428       .  A
C29          C45   1.434       .  A
C29          C37   1.387       .  A
C30          C38   1.387       .  A
C30          C47   1.439       .  A
C31          C46   1.434       .  A
C31          C39   1.387       .  A
C32          C44   1.441       .  A
C32          C40   1.387       .  A
C33          C47   1.430       .  A
C33          C41   1.380       .  A
C34          C42   1.383       .  A
C34          C45   1.432       .  A
C35          C43   1.387       .  A
C35          C46   1.433       .  A
C36          C37   1.383   1_455  A
C36          H48   1.082       .  S
C37          H49   1.082       .  S
C38          C39   1.384   1_455  A
C38          H50   1.082       .  S
C39          H51   1.082       .  S
C40          C41   1.381       .  A
C40          H52   1.076       .  S
C41          H53   1.082       .  S
C42          C43   1.378       .  A
C42          H54   1.082       .  S
C43          H55   1.082       .  S
C45         N333   1.480       .  S
C46          N71   1.467       .  S
C47         N379   1.485       .  S
C58          C60   1.565       .  S
C58          C62   1.588       .  S
C58          C61   1.541       .  S
C58         C626   1.508       .  S
C59          C63   1.558       .  S
C59          C65   1.549       .  S
C59          C64   1.542       .  S
C59         C619   1.486       .  S
C60          C68   1.390       .  A
C60          C63   1.385       .  A
C61          C72   1.400       .  A
C61          C64   1.353       .  A
C62          C76   1.420       .  A
C62          C65   1.393       .  A
C63          C66   1.409       .  A
C64          C70   1.396       .  A
C65          C73   1.383       .  A
C66          N67   1.377       .  A
C66          H79   1.082       .  S
N67          C68   1.364       .  A
N67         C249   1.481       .  S
C68          H69   1.082       .  S
C70          N71   1.361       .  A
C70          H80   1.082       .  S
N71          C72   1.364       .  A
C72          H78   1.082       .  S
C73          N74   1.355       .  A
C73          H75   1.082       .  S
N74          C76   1.388       .  A
N74         C135   1.485       .  S
C76          H77   1.082       .  S
N81          C86   1.373   1_545  A
N81          C85   1.368       .  A
N81         H113   1.040       .  S
N82          C89   1.370       .  A
N82          C90   1.372       .  A
N83          C88   1.362   1_545  A
N83          C87   1.364       .  A
N83         H114   1.042       .  S
N84          C91   1.363       .  A
N84          C92   1.363       .  A
C85          C93   1.394       .  A
C85         C101   1.457       .  A
C86         C102   1.442       .  A
C86          C94   1.382       .  A
C87          C95   1.382       .  A
C87         C104   1.424       .  A
C88         C103   1.436       .  A
C88          C96   1.390       .  A
C89         C101   1.445       .  A
C89          C97   1.384       .  A
C90         C104   1.457       .  A
C90          C98   1.390       .  A
C91          C99   1.387       .  A
C91         C102   1.436       .  A
C92         C100   1.384       .  A
C92         C103   1.431       .  A
C93          C94   1.386   1_545  A
C93         H105   1.082       .  S
C94         H106   1.082       .  S
C95          C96   1.378   1_545  A
C95         H107   1.082       .  S
C96         H108   1.082       .  S
C97          C98   1.388       .  A
C97         H109   1.082       .  S
C98         H110   1.081       .  S
C99         C100   1.380       .  A
C99         H111   1.082       .  S
C100        H112   1.081       .  S
C102        N382   1.484       .  S
C103        N158   1.471       .  S
C104        N359   1.488       .  S
N115        C120   1.361   1_565  A
N115        C119   1.366       .  A
N115        H147   1.041       .  S
N116        C123   1.369       .  A
N116        C124   1.366       .  A
N117        C122   1.371   1_565  A
N117        C121   1.364       .  A
N117        H148   1.041       .  S
N118        C125   1.363       .  A
N118        C126   1.367       .  A
C119        C127   1.382       .  A
C119        C135   1.425       .  A
C120        C136   1.437       .  A
C120        C128   1.391       .  A
C121        C129   1.393       .  A
C121        C138   1.447       .  A
C122        C137   1.435       .  A
C122        C130   1.381       .  A
C123        C135   1.448       .  A
C123        C131   1.388       .  A
C124        C138   1.440       .  A
C124        C132   1.385       .  A
C125        C133   1.386       .  A
C125        C136   1.434       .  A
C126        C134   1.385       .  A
C126        C137   1.438       .  A
C127        C128   1.377   1_565  A
C127        H139   1.082       .  S
C128        H140   1.082       .  S
C129        C130   1.383   1_565  A
C129        H141   1.082       .  S
C130        H142   1.082       .  S
C131        C132   1.385       .  A
C131        H143   1.081       .  S
C132        H144   1.082       .  S
C133        C134   1.381       .  A
C133        H145   1.081       .  S
C134        H146   1.082       .  S
C136        N336   1.468       .  S
C137        N222   1.486       .  S
C138        N313   1.478       .  S
C149        C151   1.549       .  S
C149        C153   1.538       .  S
C149        C152   1.558       .  S
C149        C606   1.477       .  S
C150        C154   1.550       .  S
C150        C156   1.549       .  S
C150        C155   1.571       .  S
C150        C596   1.494       .  S
C151        C159   1.408       .  A
C151        C154   1.366       .  A
C152        C163   1.391       .  A
C152        C155   1.396       .  A
C153        C167   1.385       .  A
C153        C156   1.364       .  A
C154        C157   1.386       .  A
C155        C161   1.401       .  A
C156        C164   1.403       .  A
C157        N158   1.356       .  A
C157        H170   1.081       .  S
N158        C159   1.371       .  A
C159        H160   1.082       .  S
C161        N162   1.378       .  A
C161        H171   1.082       .  S
N162        C163   1.362       .  A
N162        C193   1.477       .  S
C163        H169   1.081       .  S
C164        N165   1.367       .  A
C164        H166   1.082       .  S
N165        C167   1.354       .  A
N165        C251   1.460       .  S
C167        H168   1.082       .  S
N172        C177   1.369       .  A
N172        C176   1.365       .  A
N172        H204   1.041       .  S
N173        C180   1.360   1_655  A
N173        C181   1.364       .  A
N174        C179   1.360       .  A
N174        C178   1.368       .  A
N174        H205   1.041       .  S
N175        C182   1.359   1_655  A
N175        C183   1.355       .  A
C176        C184   1.389       .  A
C176        C192   1.443       .  A
C177        C193   1.442       .  A
C177        C185   1.386       .  A
C178        C186   1.383       .  A
C178        C195   1.432       .  A
C179        C194   1.443       .  A
C179        C187   1.392       .  A
C180        C192   1.429       .  A
C180        C188   1.386       .  A
C181        C195   1.434       .  A
C181        C189   1.385       .  A
C182        C190   1.384       .  A
C182        C193   1.420       .  A
C183        C191   1.386       .  A
C183        C194   1.419       .  A
C184        C185   1.388       .  A
C184        H196   1.082       .  S
C185        H197   1.082       .  S
C186        C187   1.385       .  A
C186        H198   1.082       .  S
C187        H199   1.082       .  S
C188        C189   1.379   1_455  A
C188        H200   1.082       .  S
C189        H201   1.082       .  S
C190        C191   1.374   1_455  A
C190        H202   1.081       .  S
C191        H203   1.081       .  S
C192        N356   1.471       .  S
C194        N310   1.461       .  S
C195        N219   1.480       .  S
C206        C208   1.551       .  S
C206        C210   1.588       .  S
C206        C209   1.554       .  S
C206        C579   1.523       .  S
C207        C211   1.531       .  S
C207        C213   1.564       .  S
C207        C212   1.568       .  S
C207        C586   1.513       .  S
C208        C216   1.402       .  A
C208        C211   1.359       .  A
C209        C220   1.385       .  A
C209        C212   1.383       .  A
C210        C224   1.419       .  A
C210        C213   1.403       .  A
C211        C214   1.383       .  A
C212        C218   1.418       .  A
C213        C221   1.391       .  A
C214        N215   1.350       .  A
C214        H227   1.079       .  S
N215        C216   1.374       .  A
N215        C285   1.469       .  S
C216        H217   1.082       .  S
C218        N219   1.381       .  A
C218        H228   1.082       .  S
N219        C220   1.357       .  A
C220        H226   1.083       .  S
C221        N222   1.360       .  A
C221        H223   1.082       .  S
N222        C224   1.383       .  A
C224        H225   1.082       .  S
N229        C234   1.364       .  A
N229        C233   1.368       .  A
N229        H261   1.041       .  S
N230        C237   1.364       .  A
N230        C238   1.364   1_554  A
N231        C236   1.359       .  A
N231        C235   1.358       .  A
N231        H262   1.040       .  S
N232        C239   1.357       .  A
N232        C240   1.360   1_554  A
C233        C241   1.384       .  A
C233        C249   1.436       .  A
C234        C250   1.443       .  A
C234        C242   1.390       .  A
C235        C243   1.386       .  A
C235        C252   1.423       .  A
C236        C251   1.424       .  A
C236        C244   1.386       .  A
C237        C249   1.438       .  A
C237        C245   1.388       .  A
C238        C252   1.431       .  A
C238        C246   1.383       .  A
C239        C247   1.389       .  A
C239        C250   1.426       .  A
C240        C248   1.382       .  A
C240        C251   1.419       .  A
C241        C242   1.384       .  A
C241        H253   1.082       .  S
C242        H254   1.082       .  S
C243        C244   1.379       .  A
C243        H255   1.082       .  S
C244        H256   1.082       .  S
C245        C246   1.381   1_554  A
C245        H257   1.082       .  S
C246        H258   1.082       .  S
C247        C248   1.376   1_554  A
C247        H259   1.081       .  S
C248        H260   1.082       .  S
C250        N375   1.470       .  S
C252        N306   1.463       .  S
N263        C268   1.361       .  A
N263        C267   1.357       .  A
N263        H295   1.039       .  S
N264        C271   1.359   1_556  A
N264        C272   1.360       .  A
N265        C270   1.364       .  A
N265        C269   1.368       .  A
N265        H296   1.041       .  S
N266        C273   1.359   1_556  A
N266        C274   1.355       .  A
C267        C275   1.387       .  A
C267        C283   1.423       .  A
C268        C284   1.426       .  A
C268        C276   1.386       .  A
C269        C277   1.383       .  A
C269        C286   1.433       .  A
C270        C285   1.445       .  A
C270        C278   1.391       .  A
C271        C283   1.421       .  A
C271        C279   1.383       .  A
C272        C286   1.432       .  A
C272        C280   1.388       .  A
C273        C281   1.382       .  A
C273        C284   1.418       .  A
C274        C282   1.388       .  A
C274        C285   1.422       .  A
C275        C276   1.380       .  A
C275        H287   1.083       .  S
C276        H288   1.082       .  S
C277        C278   1.385       .  A
C277        H289   1.082       .  S
C278        H290   1.082       .  S
C279        C280   1.376   1_554  A
C279        H291   1.082       .  S
C280        H292   1.081       .  S
C281        C282   1.374   1_554  A
C281        H293   1.082       .  S
C282        H294   1.081       .  S
C284        N329   1.461       .  S
C286        N352   1.474       .  S
C297        C299   1.562       .  S
C297        C301   1.571       .  S
C297        C300   1.542       .  S
C297        C556   1.505       .  S
C298        C302   1.549       .  S
C298        C304   1.546       .  S
C298        C303   1.547       .  S
C298        C566   1.493       .  S
C299        C307   1.396       .  A
C299        C302   1.385       .  A
C300        C311   1.375       .  A
C300        C303   1.370       .  A
C301        C315   1.421       .  A
C301        C304   1.382       .  A
C302        C305   1.395       .  A
C303        C309   1.404       .  A
C304        C312   1.375       .  A
C305        N306   1.363       .  A
C305        H318   1.082       .  S
N306        C307   1.363       .  A
C307        H308   1.082       .  S
C309        N310   1.374       .  A
C309        H319   1.082       .  S
N310        C311   1.343       .  A
C311        H317   1.076       .  S
C312        N313   1.351       .  A
C312        H314   1.081       .  S
N313        C315   1.383       .  A
C315        H316   1.082       .  S
C320        C322   1.537       .  S
C320        C324   1.547       .  S
C320        C323   1.570       .  S
C320        C546   1.486       .  S
C321        C325   1.549       .  S
C321        C327   1.543       .  S
C321        C326   1.565       .  S
C321        C536   1.490       .  S
C322        C330   1.385       .  A
C322        C325   1.365       .  A
C323        C334   1.397       .  A
C323        C326   1.401       .  A
C324        C338   1.404       .  A
C324        C327   1.361       .  A
C325        C328   1.401       .  A
C326        C332   1.397       .  A
C327        C335   1.386       .  A
C328        N329   1.368       .  A
C328        H341   1.082       .  S
N329        C330   1.355       .  A
C330        H331   1.083       .  S
C332        N333   1.372       .  A
C332        H342   1.082       .  S
N333        C334   1.372       .  A
C334        H340   1.081       .  S
C335        N336   1.357       .  A
C335        H337   1.081       .  S
N336        C338   1.368       .  A
C338        H339   1.082       .  S
C343        C345   1.553       .  S
C343        C347   1.546       .  S
C343        C346   1.541       .  S
C343        C516   1.481       .  S
C344        C348   1.561       .  S
C344        C350   1.597       .  S
C344        C349   1.550       .  S
C344        C526   1.512       .  S
C345        C353   1.409       .  A
C345        C348   1.382       .  A
C346        C357   1.398       .  A
C346        C349   1.346       .  A
C347        C361   1.378       .  A
C347        C350   1.394       .  A
C348        C351   1.382       .  A
C349        C355   1.407       .  A
C350        C358   1.427       .  A
C351        N352   1.359       .  A
C351        H364   1.083       .  S
N352        C353   1.377       .  A
C353        H354   1.082       .  S
C355        N356   1.369       .  A
C355        H365   1.082       .  S
N356        C357   1.354       .  A
C357        H363   1.079       .  S
C358        N359   1.394       .  A
C358        H360   1.082       .  S
N359        C361   1.350       .  A
C361        H362   1.082       .  S
C366        C368   1.530       .  S
C366        C370   1.567       .  S
C366        C369   1.578       .  S
C366        C506   1.516       .  S
C367        C371   1.548       .  S
C367        C373   1.582       .  S
C367        C372   1.553       .  S
C367        C496   1.517       .  S
C368        C376   1.386       .  A
C368        C371   1.358       .  A
C369        C380   1.422       .  A
C369        C372   1.385       .  A
C370        C384   1.390       .  A
C370        C373   1.401       .  A
C371        C374   1.397       .  A
C372        C378   1.387       .  A
C373        C381   1.419       .  A
C374        N375   1.371       .  A
C374        H387   1.082       .  S
N375        C376   1.356       .  A
C376        H377   1.080       .  S
C378        N379   1.357       .  A
C378        H388   1.083       .  S
N379        C380   1.384       .  A
C380        H386   1.082       .  S
C381        N382   1.382       .  A
C381        H383   1.081       .  S
N382        C384   1.360       .  A
C384        H385   1.082       .  S
C389        N407   1.353   1_554  A
C389        C426   1.447       .  S
C389        C499   1.461       .  S
N390        N407   1.324       .  A
N390        N412   1.310       .  A
N390       Co427   2.101       .  S
C391        N416   1.342       .  A
C391        H436   1.079       .  S
C391        C429   1.462   1_554  S
H392        C433   1.079       .  S
C393        N417   1.334       .  A
C393        H422   1.082       .  S
C393        C397   1.477       .  S
Co394       N412   2.016   1_544  S
Co394       N402   2.058   1_545  S
Co394       N434   2.045   1_554  S
Co394       N410   2.018       .  S
Co394      Cl438   2.509       .  S
N395        C433   1.327       .  A
N395        N402   1.310   1_545  A
N395       Co396   2.070       .  S
Co396       N399   2.063   1_455  S
Co396       N416   2.081       .  S
Co396       N403   2.113   1_455  S
Co396      Cl438   2.327       .  S
C397        N435   1.344   1_565  A
C397        C539   1.470   1_565  S
N398        N405   1.314       .  A
N398        N428   1.308   1_556  A
N398       Co431   2.018       .  S
N399        N417   1.306   1_545  A
N399        N435   1.311       .  A
N400        C429   1.337       .  A
N400        N410   1.309   1_556  A
H401        C426   1.082       .  S
N402        N423   1.320       .  A
N403        N421   1.312       .  A
N403        N408   1.327       .  A
C404        N408   1.356   1_556  A
C404        C432   1.442       .  S
C404        C576   1.464       .  S
N405        C420   1.347       .  A
N405       Co427   2.096   1_655  S
C406        N434   1.336       .  A
C406        H440   1.082       .  S
C406        C409   1.481       .  S
C409        N430   1.343       .  A
C409        C599   1.471   1_545  S
N410        N416   1.311       .  A
N411        C437   1.329       .  A
N411        N413   1.308   1_565  A
N411       Co427   2.070   1_655  S
N412        C426   1.323   1_556  A
N413        N441   1.319       .  A
N413       Co431   2.047   1_545  S
H414        C437   1.080       .  S
H415        C432   1.082       .  S
N417       Co431   2.032   1_554  S
N418        N430   1.310   1_565  A
N418        N434   1.309   1_565  A
N418       Co427   2.064       .  S
C419        N423   1.360       .  A
C419        C433   1.463   1_565  S
C419        C646   1.476   1_565  S
C420        H424   1.078       .  S
C420        C439   1.463   1_556  S
N421        C432   1.322   1_554  A
N421       Co431   2.018   1_544  S
C425        N441   1.356       .  A
C425        C437   1.465   1_545  S
C425        C569   1.475   1_545  S
Co427      Cl438   2.328   1_566  S
N428        C439   1.334       .  A
C429        C529   1.449       .  S
Co431      Cl438   2.508   1_666  S
C439        C629   1.453       .  S
C442        N460   1.330       .  A
C442        C479   1.466       .  S
C442        C549   1.430       .  S
N443        N460   1.303       .  A
N443        N465   1.311       .  A
N443       Co480   1.979       .  S
C444        N469   1.327       .  A
C444        H489   1.082       .  S
C444        C482   1.429       .  S
H445        C486   1.075       .  S
C446        N470   1.352       .  A
C446        H475   1.081       .  S
C446        C450   1.469       .  S
Co447       N465   2.083       .  S
Co447       N455   2.039       .  S
Co447       N487   2.076       .  S
Co447       N463   2.037       .  S
Co447      Cl491   2.447       .  S
N448        C486   1.348       .  A
N448        N455   1.320       .  A
N448       Co449   2.090       .  S
Co449       N452   2.014       .  S
Co449       N469   1.995       .  S
Co449       N456   2.036       .  S
Co449      Cl491   2.386       .  S
C450        N488   1.330       .  A
C450        C509   1.448       .  S
N451        N458   1.310       .  A
N451        N481   1.305       .  A
N451       Co484   2.029       .  S
N452        N470   1.313       .  A
N452        N488   1.301       .  A
N453        C482   1.351       .  A
N453        N463   1.307       .  A
H454        C479   1.075       .  S
N455        N476   1.303       .  A
N456        N474   1.309       .  A
N456        N461   1.311       .  A
C457        N461   1.344       .  A
C457        C485   1.447       .  S
C457        C609   1.421       .  S
N458        C473   1.333       .  A
N458       Co480   2.015       .  S
C459        N487   1.353       .  A
C459        H493   1.082       .  S
C459        C462   1.470       .  S
C462        N483   1.326       .  A
C462        C589   1.440       .  S
N463        N469   1.311       .  A
N464        C490   1.336       .  A
N464        N466   1.307       .  A
N464       Co480   2.030       .  S
N465        C479   1.336       .  A
N466        N494   1.305       .  A
N466       Co484   2.053       .  S
H467        C490   1.081       .  S
H468        C485   1.081       .  S
N470       Co484   2.077       .  S
N471        N483   1.297       .  A
N471        N487   1.317       .  A
N471       Co480   2.012       .  S
C472        N476   1.336       .  A
C472        C486   1.461       .  S
C472        C639   1.468       .  S
C473        H477   1.081       .  S
C473        C492   1.446       .  S
N474        C485   1.334       .  A
N474       Co484   2.028       .  S
C478        N494   1.344       .  A
C478        C490   1.457       .  S
C478        C559   1.437       .  S
Co480      Cl491   2.406       .  S
N481        C492   1.340       .  A
C482        C519   1.413       .  S
Co484      Cl491   2.418       .  S
C492        C616   1.416       .  S
C495        C496   1.421       .  A
C495        C500   1.381       .  A
C495        H501   1.084       .  S
C496        C497   1.396       .  A
C497        C498   1.405       .  A
C497        H502   1.081       .  S
C498        C499   1.417       .  A
C498        H503   1.082       .  S
C499        C500   1.383       .  A
C500        H504   1.084       .  S
C505        C506   1.422       .  A
C505        C510   1.392       .  A
C505        H511   1.077       .  S
C506        C507   1.406       .  A
C507        C508   1.402       .  A
C507        H512   1.083       .  S
C508        C509   1.409       .  A
C508        H513   1.084       .  S
C509        C510   1.389       .  A
C510        H514   1.084       .  S
C515        C516   1.402       .  A
C515        C520   1.392       .  A
C515        H521   1.082       .  S
C516        C517   1.423       .  A
C517        C518   1.370       .  A
C517        H522   1.080       .  S
C518        C519   1.378       .  A
C518        H523   1.086       .  S
C519        C520   1.405       .  A
C520        H524   1.083       .  S
C525        C526   1.392       .  A
C525        C530   1.405       .  A
C525        H531   1.082       .  S
C526        C527   1.427       .  A
C527        C528   1.375       .  A
C527        H532   1.084       .  S
C528        C529   1.377       .  A
C528        H533   1.084       .  S
C529        C530   1.417       .  A
C530        H534   1.082       .  S
C535        C536   1.400       .  A
C535        C540   1.386       .  A
C535        H541   1.082       .  S
C536        C537   1.418       .  A
C537        C538   1.382       .  A
C537        H542   1.079       .  S
C538        C539   1.394       .  A
C538        H543   1.083   1_545  S
C539        C540   1.412       .  A
C540        H544   1.084       .  S
C545        C546   1.398       .  A
C545        C550   1.389       .  A
C545        H551   1.081       .  S
C546        C547   1.417       .  A
C547        C548   1.377       .  A
C547        H552   1.081       .  S
C548        C549   1.384       .  A
C548        H553   1.084       .  S
C549        C550   1.407       .  A
C550        H554   1.084       .  S
C555        C556   1.410       .  A
C555        C560   1.401       .  A
C555        H561   1.082       .  S
C556        C557   1.423       .  A
C557        C558   1.385       .  A
C557        H562   1.076       .  S
C558        C559   1.384       .  A
C558        H563   1.084       .  S
C559        C560   1.412       .  A
C560        H564   1.084       .  S
C565        C566   1.411       .  A
C565        C570   1.389       .  A
C565        H571   1.079       .  S
C566        C567   1.403       .  A
C567        C568   1.382       .  A
C567        H572   1.082       .  S
C568        C569   1.407       .  A
C568        H573   1.081       .  S
C569        C570   1.401       .  A
C570        H574   1.084       .  S
C575        C576   1.385       .  A
C575        C580   1.383       .  A
C575        H581   1.084       .  S
C576        C577   1.418       .  A
C577        C578   1.409       .  A
C577        H582   1.083       .  S
C578        C579   1.399       .  A
C578        H583   1.081       .  S
C579        C580   1.420       .  A
C580        H584   1.084       .  S
C585        C586   1.421       .  A
C585        C590   1.393       .  A
C585        H591   1.077       .  S
C586        C587   1.409       .  A
C587        C588   1.402       .  A
C587        H592   1.082       .  S
C588        C589   1.410       .  A
C588        H593   1.084       .  S
C589        C590   1.390       .  A
C590        H594   1.084       .  S
C595        C596   1.420       .  A
C595        C600   1.382       .  A
C595        H601   1.079       .  S
C596        C597   1.401       .  A
C597        C598   1.391       .  A
C597        H602   1.083       .  S
C598        C599   1.414       .  A
C598        H603   1.084       .  S
C599        C600   1.392       .  A
C600        H604   1.083   1_565  S
C605        C606   1.410       .  A
C605        C610   1.376       .  A
C605        H611   1.081       .  S
C606        C607   1.406       .  A
C607        C608   1.380       .  A
C607        H612   1.076       .  S
C608        C609   1.393       .  A
C608        H613   1.084       .  S
C609        C610   1.393       .  A
C610        H614   1.084       .  S
C615        C616   1.405       .  A
C615        C620   1.394       .  A
C615        H621   1.084       .  S
C616        C617   1.381       .  A
C617        C618   1.366       .  A
C617        H622   1.086       .  S
C618        C619   1.415       .  A
C618        H623   1.082       .  S
C619        C620   1.401       .  A
C620        H624   1.081       .  S
C625        C626   1.394       .  A
C625        C630   1.403       .  A
C625        H631   1.082       .  S
C626        C627   1.421       .  A
C627        C628   1.379       .  A
C627        H632   1.084       .  S
C628        C629   1.381       .  A
C628        H633   1.084       .  S
C629        C630   1.416       .  A
C630        H634   1.081       .  S
C635        C636   1.430       .  A
C635        C640   1.393       .  A
C635        H641   1.072       .  S
C636        C637   1.406       .  A
C637        C638   1.414       .  A
C637        H642   1.082       .  S
C638        C639   1.412       .  A
C638        H643   1.076       .  S
C639        C640   1.381       .  A
C640        H644   1.083       .  S
C645        C646   1.410       .  A
C645        C650   1.388       .  A
C645        H651   1.081       .  S
C646        C647   1.397       .  A
C647        C648   1.385       .  A
C647        H652   1.084       .  S
C648        C649   1.415       .  A
C648        H653   1.078       .  S
C649        C650   1.403       .  A
C650        H654   1.082       .  S
