geometry optimzed in LAMMPS
_audit_creation_date              2020-12-01 
_audit_creation_method            'lammps2cif' 
_symmetry_space_group_name_H-M    'P1' 
_symmetry_Int_Tables_number       1 
_symmetry_cell_setting            triclinic 
loop_ 
_symmetry_equiv_pos_as_xyz 
  x,y,z 
_cell_length_a                    45.36063998 
_cell_length_b                    45.4543340969 
_cell_length_c                    93.13572616039352 
_cell_angle_alpha                 89.93042255716824 
_cell_angle_beta                  90.11473531093256 
_cell_angle_gamma                 89.84627272866557 
loop_ 
_atom_site_label 
_atom_site_type_symbol 
_atom_site_fract_x 
_atom_site_fract_y 
_atom_site_fract_z 
_atom_site_charge 
O1          O  0.82078491  0.46579452  0.05473602    -0.56700
C2          C  0.83287865  0.36378431  0.07296381     0.75900
O3          O  0.89138614  0.43150378  0.05942954    -0.57800
C4          C  0.82470163  0.45235287  0.04301426     0.75900
C5          C  0.81011266  0.45650938  0.09241176     0.78300
Cd6        Cd  0.84205627  0.42634662  0.07009653     1.37500
O7          O  0.81626539  0.37924709  0.06504611    -0.56700
O8          O  0.79930330  0.43434284  0.08612709    -0.55500
C9          C  0.90545010  0.43270454  0.07113044     0.78300
O10         O  0.83540687  0.46471414  0.08837268    -0.57900
O11         O  0.85271120  0.37727037  0.07981899    -0.56300
O12         O  0.83564117  0.42678953  0.04383985    -0.56300
O13         O  0.89029260  0.43203895  0.08250849    -0.55500
O14         O  0.19821248  0.37905059  0.06087818    -0.56700
C15         C  0.19153081  0.45794973  0.04252716     0.75900
O16         O  0.12528925  0.42702436  0.05753860    -0.57800
C17         C  0.18614773  0.36389437  0.07064736     0.75900
C18         C  0.20740799  0.45673909  0.09058124     0.78300
Cd19       Cd  0.17493479  0.42651498  0.06836332     1.37500
O20         O  0.18653746  0.43055979  0.04238674    -0.56700
O21         O  0.21665609  0.43262653  0.08547594    -0.55500
C22         C  0.11118957  0.42972382  0.06914024     0.78300
O23         O  0.18332214  0.46645897  0.08559907    -0.57900
O24         O  0.19042393  0.47044649  0.05461520    -0.56300
O25         O  0.17025108  0.37774458  0.07950706    -0.56300
O26         O  0.12637772  0.43133009  0.08049700    -0.55500
O27         O  0.81235770  0.58247203  0.95563732    -0.56700
C28         C  0.81444833  0.65091464  0.93053916     0.75900
O29         O  0.88229062  0.57601188  0.92103035    -0.57800
C30         C  0.82304123  0.55691930  0.95736083     0.75900
C31         C  0.80009224  0.55947406  0.90887849     0.78300
Cd32       Cd  0.83327796  0.58967402  0.93122553     1.37500
O33         O  0.81043854  0.63518918  0.94156483    -0.56700
O34         O  0.79576574  0.55442505  0.92205037    -0.55500
C35         C  0.89712327  0.59061302  0.93003207     0.78300
O36         O  0.81941574  0.57851032  0.90595302    -0.57900
O37         O  0.82561976  0.63813604  0.91980064    -0.56300
O38         O  0.83792952  0.54654305  0.94705230    -0.56300
O39         O  0.88266450  0.60459640  0.93936044    -0.55500
O40         O  0.18248044  0.59602748  0.95805992    -0.56700
C41         C  0.17762931  0.66082295  0.92873772     0.75900
O42         O  0.17330519  0.55992003  0.91415353    -0.57800
C43         C  0.18407608  0.56825739  0.95850777     0.75900
C44         C  0.10280173  0.59697253  0.93216086     0.78300
Cd45       Cd  0.16656373  0.59872901  0.93231594     1.37500
O46         O  0.19157133  0.64585545  0.93801492    -0.56700
O47         O  0.11712618  0.60652385  0.94282208    -0.55500
C48         C  0.19773523  0.56909682  0.90945152     0.78300
O49         O  0.11776539  0.58805018  0.92159513    -0.57900
O50         O  0.15987142  0.64694144  0.92076374    -0.56300
O51         O  0.17875826  0.55490350  0.94691774    -0.56300
O52         O  0.20786609  0.59221911  0.91516062    -0.55500
O53         O  0.81387651  0.14423259  0.06091407    -0.56700
C54         C  0.82124222  0.06727525  0.03994845     0.75900
O55         O  0.88823653  0.09885256  0.05552877    -0.57800
C56         C  0.82954692  0.15895468  0.06956901     0.75900
C57         C  0.80556296  0.06633176  0.08854482     0.78300
Cd58       Cd  0.83864612  0.09638790  0.06629091     1.37500
O59         O  0.82258738  0.05399361  0.05184445    -0.56700
O60         O  0.83105853  0.05807452  0.08479303    -0.55500
C61         C  0.90248800  0.09290292  0.06684337     0.78300
O62         O  0.79528842  0.08885145  0.08223597    -0.57900
O63         O  0.82707227  0.09446956  0.04011354    -0.56300
O64         O  0.84804183  0.14469666  0.07698371    -0.56300
O65         O  0.88738672  0.08737228  0.07791609    -0.55500
O66         O  0.18371076  0.09237419  0.04184154    -0.56700
C67         C  0.18551518  0.15898501  0.06958676     0.75900
O68         O  0.12229376  0.09960064  0.05722880    -0.57800
C69         C  0.18534541  0.06459316  0.04191204     0.75900
C70         C  0.20450066  0.06740493  0.09018475     0.78300
Cd71       Cd  0.17208377  0.09709657  0.06771949     1.37500
O72         O  0.19830710  0.14289494  0.06040300    -0.56700
O73         O  0.21560400  0.08883231  0.08342146    -0.55500
C74         C  0.10839638  0.09638305  0.06885709     0.78300
O75         O  0.17868454  0.05989381  0.08662362    -0.57900
O76         O  0.16763654  0.14637918  0.07794463    -0.56300
O77         O  0.18229655  0.05202578  0.05392485    -0.56300
O78         O  0.12376992  0.09341646  0.08010923    -0.55500
O79         O  0.80565818  0.87106519  0.94347617    -0.56700
C80         C  0.81632660  0.95314966  0.95742438     0.75900
O81         O  0.87572794  0.93090748  0.92182040    -0.57800
C82         C  0.80979895  0.85529986  0.93247118     0.75900
C83         C  0.79129961  0.94458687  0.91073385     0.78300
Cd84       Cd  0.82726816  0.91685419  0.93261267     1.37500
O85         O  0.81037758  0.92591567  0.95741569    -0.56700
O86         O  0.78583982  0.94744928  0.92395130    -0.55500
C87         C  0.89133571  0.91859744  0.93135541     0.78300
O88         O  0.81296402  0.92835437  0.90748046    -0.57900
O89         O  0.82692437  0.96367803  0.94596688    -0.56300
O90         O  0.82047782  0.86812719  0.92164233    -0.56300
O91         O  0.87756547  0.90533514  0.94117980    -0.55500
O92         O  0.18643843  0.88121887  0.93851788    -0.56700
C93         C  0.17672571  0.95981948  0.95640072     0.75900
O94         O  0.20580204  0.93624979  0.91577481    -0.57800
C95         C  0.17563278  0.86548687  0.92863505     0.75900
C96         C  0.09726874  0.92768289  0.93070043     0.78300
Cd97       Cd  0.16133150  0.92711960  0.93081540     1.37500
O98         O  0.17558918  0.93206987  0.95640036    -0.56700
O99         O  0.11192928  0.91632585  0.94083493    -0.55500
C100        C  0.19340935  0.95475089  0.90756389     0.78300
O101        O  0.11197673  0.93899137  0.92060050    -0.57900
O102        O  0.17160198  0.97248501  0.94457048    -0.56300
O103        O  0.15931088  0.87837370  0.91956402    -0.56300
O104        O  0.16644964  0.95996235  0.90991947    -0.55500
O105        O  0.38941839  0.95446834  0.18809860    -0.56700
C106        C  0.31240611  0.94245053  0.20764661     0.75900
O107        O  0.30297894  0.93975915  0.16364353    -0.57800
C108        C  0.40491708  0.94196174  0.17859475     0.75900
C109        C  0.33927583  0.86595405  0.18003693     0.78300
Cd110      Cd  0.34250727  0.92976960  0.18115352     1.37500
O111        O  0.34022947  0.94065506  0.20717371    -0.56700
O112        O  0.34459793  0.87993029  0.19145961    -0.55500
C113        C  0.31118926  0.96539714  0.16027520     0.78300
O114        O  0.33544797  0.88127658  0.16882783    -0.57900
O115        O  0.29881008  0.94001412  0.19587101    -0.56300
O116        O  0.39150609  0.92488330  0.17008871    -0.56300
O117        O  0.33439147  0.97472284  0.16628996    -0.55500
O118        O  0.38809528  0.57316876  0.18911375    -0.56700
C119        C  0.30934431  0.58306244  0.20742671     0.75900
O120        O  0.33545085  0.64442089  0.16848461    -0.57800
C121        C  0.40336806  0.58444179  0.17917742     0.75900
C122        C  0.31157345  0.56057171  0.16050256     0.78300
Cd123      Cd  0.34095086  0.59659207  0.18146519     1.37500
O124        O  0.33713424  0.58548977  0.20733152    -0.56700
O125        O  0.33201947  0.55005246  0.16823192    -0.55500
C126        C  0.33748191  0.66019993  0.17962358     0.78300
O127        O  0.30520077  0.58738239  0.16235655    -0.57900
O128        O  0.29623392  0.58631373  0.19554668    -0.56300
O129        O  0.38980171  0.60050572  0.17025589    -0.56300
O130        O  0.34079735  0.64674421  0.19139325    -0.55500
O131        O  0.12603495  0.93948465  0.31059227    -0.56700
C132        C  0.20517957  0.92974576  0.29242765     0.75900
O133        O  0.20876466  0.92319370  0.33793519    -0.57800
C134        C  0.11073504  0.92992003  0.32093575     0.75900
C135        C  0.17432458  0.85246999  0.31942670     0.78300
Cd136      Cd  0.17304245  0.91623888  0.31845252     1.37500
O137        O  0.17732401  0.92955292  0.29273345    -0.56700
O138        O  0.16545808  0.86657000  0.30855438    -0.55500
C139        C  0.20301764  0.94996367  0.34034670     0.78300
O140        O  0.18279675  0.86763521  0.33002360    -0.57900
O141        O  0.21824163  0.92464427  0.30415692    -0.56300
O142        O  0.12429443  0.91509713  0.33038030    -0.56300
O143        O  0.18286858  0.96154036  0.33277867    -0.55500
O144        O  0.11926969  0.56211718  0.30851982    -0.56700
C145        C  0.19982157  0.57358377  0.29148004     0.75900
O146        O  0.18154056  0.63159202  0.32752274    -0.57800
C147        C  0.10507325  0.56791303  0.31984622     0.75900
C148        C  0.19629679  0.54696659  0.33839225     0.78300
Cd149      Cd  0.16674185  0.58322618  0.31727073     1.37500
O150        O  0.17240431  0.56844681  0.29197610    -0.56700
O151        O  0.19333795  0.53844558  0.32554142    -0.55500
C152        C  0.16904506  0.64698293  0.31796228     0.78300
O153        O  0.18538630  0.57177984  0.34148361    -0.57900
O154        O  0.21197413  0.58225697  0.30294955    -0.56300
O155        O  0.11953888  0.57931054  0.33000499    -0.56300
O156        O  0.15538905  0.63311191  0.30828808    -0.55500
O157        O  0.67167157  0.58702947  0.20798250    -0.56700
C158        C  0.60848787  0.58257060  0.17762895     0.75900
O159        O  0.67577479  0.64307305  0.16929945    -0.57800
C160        C  0.69888178  0.58088671  0.20862639     0.75900
C161        C  0.70312918  0.55989470  0.16140092     0.78300
Cd162      Cd  0.67053736  0.59485547  0.18170405     1.37500
O163        O  0.62310406  0.57055218  0.18763830    -0.56700
O164        O  0.68084782  0.54972906  0.16786341    -0.55500
C165        C  0.67359629  0.65849579  0.18055447     0.78300
O166        O  0.71010888  0.58623562  0.16413469    -0.57900
O167        O  0.62266937  0.59909122  0.16919304    -0.56300
O168        O  0.71265148  0.58003305  0.19685629    -0.56300
O169        O  0.67066923  0.64465900  0.19222446    -0.55500
O170        O  0.62610511  0.95314924  0.18986128    -0.56700
C171        C  0.70356750  0.94453428  0.20755729     0.75900
O172        O  0.67233262  0.87938895  0.16941920    -0.57800
C173        C  0.61029686  0.94277029  0.17987260     0.75900
C174        C  0.70384624  0.96167136  0.15953648     0.78300
Cd175      Cd  0.67243347  0.92875922  0.18154023     1.37500
O176        O  0.67571779  0.94293872  0.20730148    -0.56700
O177        O  0.68139861  0.97225859  0.16572774    -0.55500
C178        C  0.67225054  0.86444950  0.18087903     0.78300
O179        O  0.71152038  0.93602601  0.16331787    -0.57900
O180        O  0.71674626  0.93970349  0.19585049    -0.56300
O181        O  0.62335012  0.92740217  0.17052995    -0.56300
O182        O  0.67263003  0.87893768  0.19244026    -0.55500
O183        O  0.89002646  0.94363641  0.31156345    -0.56700
C184        C  0.81197204  0.93813763  0.29196822     0.75900
O185        O  0.83372326  0.87275198  0.33028521    -0.57800
C186        C  0.90505591  0.93050017  0.32109529     0.75900
C187        C  0.81151856  0.95434518  0.34004587     0.78300
Cd188      Cd  0.84205791  0.92069682  0.31818360     1.37500
O189        O  0.83958867  0.93414663  0.29227367    -0.56700
O190        O  0.83561243  0.96343009  0.33484310    -0.55500
C191        C  0.83794978  0.85702590  0.31929154     0.78300
O192        O  0.80218045  0.92997453  0.33539621    -0.57900
O193        O  0.79851796  0.93497008  0.30371498    -0.56300
O194        O  0.89098345  0.91385205  0.32952748    -0.56300
O195        O  0.84346236  0.87054244  0.30774938    -0.55500
O196        O  0.88385416  0.56448619  0.31083486    -0.56700
C197        C  0.80470519  0.57789608  0.29435623     0.75900
O198        O  0.82333701  0.57359213  0.34512740    -0.57800
C199        C  0.90014822  0.57250768  0.32113795     0.75900
C200        C  0.83623742  0.65123649  0.32107973     0.78300
Cd201      Cd  0.83789802  0.58730500  0.32034281     1.37500
O202        O  0.83169751  0.57089222  0.29526152    -0.56700
O203        O  0.84899461  0.63673786  0.31134752    -0.55500
C204        C  0.81010087  0.55010096  0.34181182     0.78300
O205        O  0.82358766  0.63638397  0.33077106    -0.57900
O206        O  0.79288346  0.58853554  0.30551347    -0.56300
O207        O  0.88761763  0.58612094  0.33124907    -0.56300
O208        O  0.80982282  0.54345611  0.32864652    -0.55500
O209        O  0.67410092  0.59007841  0.54361419    -0.56700
C210        C  0.68071752  0.65385516  0.57359239     0.75900
O211        O  0.61744885  0.58467085  0.58154583    -0.57800
C212        C  0.68184285  0.56335676  0.54318880     0.75900
C213        C  0.70041850  0.56049239  0.59185142     0.78300
Cd214      Cd  0.66697854  0.59206090  0.57008230     1.37500
O215        O  0.69436776  0.63811015  0.56455151    -0.56700
O216        O  0.70863992  0.58522055  0.58707712    -0.55500
C217        C  0.60277857  0.59024047  0.57028309     0.78300
O218        O  0.67650112  0.55047913  0.58683908    -0.57900
O219        O  0.66184582  0.64091647  0.58130238    -0.56300
O220        O  0.68451790  0.55042679  0.55514229    -0.56300
O221        O  0.61754855  0.59614172  0.55918399    -0.55500
O222        O  0.30702705  0.64077485  0.56108424    -0.56700
C223        C  0.31930756  0.56519399  0.53961024     0.75900
O224        O  0.38054840  0.58545621  0.57942618    -0.57800
C225        C  0.31998749  0.65550145  0.57074428     0.75900
C226        C  0.29889458  0.56169980  0.58760640     0.78300
Cd227      Cd  0.33284983  0.59360678  0.56660417     1.37500
O228        O  0.32952281  0.59106710  0.54001111    -0.56700
O229        O  0.28943376  0.58554222  0.58224866    -0.55500
C230        C  0.39651953  0.58842157  0.56839349     0.78300
O231        O  0.32382502  0.55280110  0.58333113    -0.57900
O232        O  0.31350925  0.55335784  0.55154563    -0.56300
O233        O  0.33824784  0.64168876  0.57850017    -0.56300
O234        O  0.38321472  0.59324824  0.55670764    -0.55500
O235        O  0.68667949  0.43001491  0.45739674    -0.56700
C236        C  0.68099156  0.35824571  0.43246143     0.75900
O237        O  0.62081895  0.43839067  0.42273526    -0.57800
C238        C  0.67804562  0.45653555  0.45782455     0.75900
C239        C  0.70534108  0.44398302  0.41046105     0.78300
Cd240      Cd  0.66826689  0.42036062  0.43274735     1.37500
O241        O  0.68836642  0.37389478  0.44311468    -0.56700
O242        O  0.71262855  0.44493478  0.42354948    -0.55500
C243        C  0.60506784  0.42250975  0.43081353     0.78300
O244        O  0.68117704  0.43157059  0.40753267    -0.57900
O245        O  0.66901692  0.37141163  0.42202539    -0.56300
O246        O  0.66523945  0.46633711  0.44671160    -0.56300
O247        O  0.61844078  0.40618758  0.43967848    -0.55500
O248        O  0.31523341  0.36992281  0.44082618    -0.56700
C249        C  0.32507229  0.45084117  0.45683700     0.75900
O250        O  0.38427692  0.43472249  0.42191225    -0.57800
C251        C  0.32445959  0.35419189  0.43055645     0.75900
C252        C  0.29991764  0.44449571  0.40941130     0.78300
Cd253      Cd  0.33620291  0.41686284  0.43134652     1.37500
O254        O  0.31473699  0.42508413  0.45553269    -0.56700
O255        O  0.29367456  0.44613967  0.42259555    -0.55500
C256        C  0.39963384  0.42014974  0.43078484     0.78300
O257        O  0.32250503  0.42957047  0.40621172    -0.57900
O258        O  0.34035400  0.46050466  0.44652125    -0.56300
O259        O  0.33773546  0.36746300  0.42056636    -0.56300
O260        O  0.38577600  0.40453651  0.43972455    -0.55500
O261        O  0.68985945  0.87277018  0.56164796    -0.56700
C262        C  0.68440727  0.95471740  0.54302710     0.75900
O263        O  0.62005602  0.93492180  0.57811153    -0.57800
C264        C  0.67848135  0.85877987  0.57199714     0.75900
C265        C  0.70192933  0.95052001  0.59053351     0.78300
Cd266      Cd  0.66874548  0.92142870  0.56836104     1.37500
O267        O  0.69099005  0.92772750  0.54408969    -0.56700
O268        O  0.71414301  0.93251059  0.58206430    -0.55500
C269        C  0.60538655  0.92449073  0.56775568     0.78300
O270        O  0.67451230  0.95433717  0.58904293    -0.57900
O271        O  0.67122683  0.96607787  0.55358024    -0.56300
O272        O  0.66337224  0.87370604  0.58078241    -0.56300
O273        O  0.61987772  0.91243580  0.55776092    -0.55500
O274        O  0.31752505  0.92971562  0.54563976    -0.56700
C275        C  0.32510802  0.85959380  0.57263008     0.75900
O276        O  0.38513800  0.93873902  0.57962173    -0.57800
C277        C  0.32559669  0.95636009  0.54499890     0.75900
C278        C  0.30094965  0.94918973  0.59229483     0.78300
Cd279      Cd  0.33675569  0.92205961  0.57033089     1.37500
O280        O  0.31197347  0.87519120  0.56333166    -0.56700
O281        O  0.29180462  0.94597726  0.57958112    -0.55500
C282        C  0.40003488  0.92727152  0.56958299     0.78300
O283        O  0.32654617  0.93955902  0.59502970    -0.57900
O284        O  0.34303372  0.87277832  0.58076433    -0.56300
O285        O  0.33798113  0.96686671  0.55602814    -0.56300
O286        O  0.38582586  0.91336522  0.56009138    -0.55500
O287        O  0.69096511  0.13751807  0.44128959    -0.56700
C288        C  0.68679036  0.06211743  0.45829919     0.75900
O289        O  0.62393074  0.09386599  0.41840724    -0.57800
C290        C  0.68163072  0.15312946  0.43098849     0.75900
C291        C  0.70654001  0.05902574  0.40973595     0.78300
Cd292      Cd  0.67226481  0.08981009  0.43124265     1.37500
O293        O  0.67306747  0.08636502  0.45763192    -0.56700
O294        O  0.71757843  0.07960740  0.41713955    -0.55500
C295        C  0.60920150  0.08187088  0.42830047     0.78300
O296        O  0.67982381  0.05292334  0.41212449    -0.57900
O297        O  0.69494007  0.05104020  0.44649888    -0.56300
O298        O  0.66935215  0.13954311  0.42078966    -0.56300
O299        O  0.62356737  0.07301553  0.43910114    -0.55500
O300        O  0.33902061  0.08381397  0.45849341    -0.56700
C301        C  0.32835450  0.14905755  0.43085648     0.75900
O302        O  0.38748634  0.08904672  0.41894487    -0.57800
C303        C  0.32388331  0.06054133  0.45926801     0.75900
C304        C  0.30694068  0.05522588  0.41015298     0.78300
Cd305      Cd  0.33990551  0.08633391  0.43208127     1.37500
O306        O  0.31670283  0.13336882  0.44051572    -0.56700
O307        O  0.29773731  0.07913192  0.41548450    -0.55500
C308        C  0.40347547  0.08044072  0.42925280     0.78300
O309        O  0.33122646  0.04553892  0.41492907    -0.57900
O310        O  0.34430633  0.13577504  0.42184262    -0.56300
O311        O  0.31506736  0.04967445  0.44752286    -0.56300
O312        O  0.39022529  0.07352798  0.44067788    -0.55500
O313        O  0.17417354  0.43607412  0.70561077    -0.56700
C314        C  0.10777979  0.43130507  0.67816205     0.75900
O315        O  0.20619040  0.42659182  0.66038202    -0.57800
C316        C  0.20199373  0.43677052  0.70621436     0.75900
C317        C  0.17377705  0.35622894  0.68035128     0.78300
Cd318      Cd  0.17070616  0.42005557  0.68021124     1.37500
O319        O  0.12353293  0.44369983  0.68759631    -0.56700
O320        O  0.16516203  0.37088260  0.69107398    -0.55500
C321        C  0.19890374  0.45268870  0.65725034     0.78300
O322        O  0.18123319  0.37085747  0.66940444    -0.57900
O323        O  0.12111141  0.41479446  0.66937127    -0.56300
O324        O  0.21552858  0.43077549  0.69473965    -0.56300
O325        O  0.17818001  0.46385765  0.66452582    -0.55500
O326        O  0.16679669  0.07386889  0.70776828    -0.56700
C327        C  0.09984426  0.07434698  0.67942408     0.75900
O328        O  0.18035639  0.13442779  0.67110636    -0.57800
C329        C  0.19448107  0.07754465  0.70838974     0.75900
C330        C  0.18970809  0.05121899  0.66020406     0.78300
Cd331      Cd  0.16219107  0.08764237  0.68189234     1.37500
O332        O  0.11502672  0.06381444  0.68963602    -0.56700
O333        O  0.19166701  0.04521917  0.67342247    -0.55500
C334        C  0.16800126  0.15091410  0.68022902     0.78300
O335        O  0.17440451  0.07347915  0.65689115    -0.57900
O336        O  0.11344842  0.09001921  0.67043394    -0.56300
O337        O  0.20708078  0.08501581  0.69684465    -0.56300
O338        O  0.15322531  0.13830231  0.68990659    -0.55500
O339        O  0.33081420  0.08718863  0.79383370    -0.56700
C340        C  0.39525420  0.08616348  0.82289165     0.75900
O341        O  0.32933766  0.14711729  0.83256111    -0.57800
C342        C  0.30318743  0.08337393  0.79339683     0.75900
C343        C  0.30174008  0.06358153  0.84091074     0.78300
Cd344      Cd  0.33290016  0.09869448  0.81993923     1.37500
O345        O  0.38045620  0.07639966  0.81239581    -0.56700
O346        O  0.32566866  0.05483814  0.83537728    -0.55500
C347        C  0.33130583  0.16243928  0.82126875     0.78300
O348        O  0.29244459  0.08859167  0.83697316    -0.57900
O349        O  0.38119257  0.10077774  0.83218785    -0.56300
O350        O  0.28958974  0.08560377  0.80517243    -0.56300
O351        O  0.33312101  0.14847387  0.80959331    -0.55500
O352        O  0.38190565  0.45383505  0.81077868    -0.56700
C353        C  0.30534167  0.44420964  0.79247548     0.75900
O354        O  0.33198110  0.38410871  0.83267259    -0.57800
C355        C  0.39729482  0.44430050  0.82114051     0.75900
C356        C  0.30466641  0.46677174  0.84006269     0.78300
Cd357      Cd  0.33530371  0.43157342  0.81917480     1.37500
O358        O  0.33317966  0.44427914  0.79332648    -0.56700
O359        O  0.32707491  0.47673662  0.83362813    -0.55500
C360        C  0.33414804  0.36799488  0.82166862     0.78300
O361        O  0.29671385  0.44099043  0.83686072    -0.57900
O362        O  0.29141236  0.43957392  0.80399359    -0.56300
O363        O  0.38390933  0.42999229  0.83076373    -0.56300
O364        O  0.33654033  0.38109553  0.80977108    -0.55500
O365        O  0.87977371  0.06113385  0.68996321    -0.56700
C366        C  0.80555592  0.07174376  0.70947415     0.75900
O367        O  0.83057992  0.13603183  0.67057821    -0.57800
C368        C  0.89532434  0.07261327  0.68018083     0.75900
C369        C  0.80288802  0.05594483  0.66085501     0.78300
Cd370      Cd  0.83406754  0.08745382  0.68290619     1.37500
O371        O  0.83239050  0.07915689  0.70913721    -0.56700
O372        O  0.82755075  0.04705890  0.66553719    -0.55500
C373        C  0.83274849  0.15104202  0.68193938     0.78300
O374        O  0.79257213  0.07921944  0.66637408    -0.57900
O375        O  0.79233933  0.07016890  0.69753116    -0.56300
O376        O  0.88236258  0.08979352  0.67155256    -0.56300
O377        O  0.83501693  0.13683859  0.69353546    -0.55500
O378        O  0.83455615  0.42793144  0.70787576    -0.56700
C379        C  0.90195556  0.42901700  0.67934626     0.75900
O380        O  0.83287981  0.37140479  0.66937918    -0.57800
C381        C  0.80705939  0.43261389  0.70779781     0.75900
C382        C  0.80843212  0.45241416  0.65960847     0.78300
Cd383      Cd  0.83880102  0.41920288  0.68170923     1.37500
O384        O  0.88684986  0.44230968  0.68874558    -0.56700
O385        O  0.82765322  0.46445645  0.66753147    -0.55500
C386        C  0.83415051  0.35610003  0.68070787     0.78300
O387        O  0.80375309  0.42534903  0.66174401    -0.57900
O388        O  0.88792937  0.41224081  0.67097662    -0.56300
O389        O  0.79445767  0.43245391  0.69568211    -0.56300
O390        O  0.83698809  0.36986986  0.69238923    -0.55500
O391        O  0.61649835  0.44524678  0.80891621    -0.56700
C392        C  0.69886329  0.43149704  0.79248490     0.75900
O393        O  0.68223247  0.43279887  0.84179427    -0.57800
C394        C  0.60191547  0.43785070  0.81991463     0.75900
C395        C  0.66568450  0.35941318  0.81835194     0.78300
Cd396      Cd  0.66374430  0.42282515  0.81758705     1.37500
O397        O  0.67185114  0.43863524  0.79263225    -0.56700
O398        O  0.64995468  0.37322463  0.80937763    -0.55500
C399        C  0.69249636  0.45806321  0.83913794     0.78300
O400        O  0.68049967  0.37477354  0.82706481    -0.57900
O401        O  0.70955823  0.42102024  0.80394884    -0.56300
O402        O  0.61598287  0.42465633  0.82972649    -0.56300
O403        O  0.68879909  0.46778557  0.82652853    -0.55500
O404        O  0.61546989  0.06719259  0.81198843    -0.56700
C405        C  0.69845565  0.07801758  0.79433085     0.75900
O406        O  0.68025354  0.13927667  0.82810003    -0.57800
C407        C  0.60052538  0.07771360  0.82226449     0.75900
C408        C  0.68981946  0.05466214  0.84179885     0.78300
Cd409      Cd  0.66308033  0.09029386  0.81950805     1.37500
O410        O  0.67085472  0.07374339  0.79429208    -0.56700
O411        O  0.68559147  0.04484596  0.82927311    -0.55500
C412        C  0.66530646  0.15394636  0.81909371     0.78300
O413        O  0.68130706  0.08073840  0.84417755    -0.57900
O414        O  0.70951784  0.08761444  0.80588118    -0.56300
O415        O  0.61452664  0.09275204  0.83138715    -0.56300
O416        O  0.64994926  0.13935472  0.81030609    -0.55500
C417        C  0.67585409  0.22981043  0.82386705     0.30900
C418        C  0.68815659  0.25541661  0.82977626    -0.35400
C419        C  0.67742351  0.28216769  0.82429270     0.16900
C420        C  0.65605750  0.28362725  0.81373827     0.22700
C421        C  0.64370170  0.25806931  0.80786756    -0.33600
C422        C  0.65447803  0.23135662  0.81332207     0.16800
O423        O  0.68265056  0.20243628  0.82734054    -0.25600
C424        C  0.66544618  0.18630249  0.81886179     0.06600
C425        C  0.64745940  0.20312889  0.80993224    -0.30500
O426        O  0.64925794  0.31090141  0.81019412    -0.22300
C427        C  0.66642406  0.32714312  0.81861729    -0.02300
C428        C  0.68444650  0.31048693  0.82760743    -0.16700
H429        H  0.70492638  0.25454687  0.83804363     0.21300
H430        H  0.62692364  0.25894989  0.79960736     0.19600
H431        H  0.63148829  0.19561204  0.80211865     0.19600
H432        H  0.70030774  0.31815505  0.83544216     0.15500
C433        C  0.78013538  0.43539330  0.74295963     0.30900
C434        C  0.78102094  0.43098294  0.75786483    -0.35400
C435        C  0.75403714  0.43376933  0.76505009     0.16900
C436        C  0.72802813  0.44069324  0.75808493     0.22700
C437        C  0.72714795  0.44513770  0.74319161    -0.33600
C438        C  0.75408692  0.44211419  0.73598521     0.16800
O439        O  0.80242023  0.43221044  0.73402531    -0.25600
C440        C  0.79048032  0.43688475  0.72116377     0.06600
C441        C  0.76047698  0.44319623  0.72172085    -0.30500
O442        O  0.70525727  0.44136147  0.76684006    -0.22300
C443        C  0.71684057  0.43469094  0.77955287    -0.02300
C444        C  0.74708345  0.42968749  0.77911083    -0.16700
H445        H  0.80117051  0.42508152  0.76340752     0.21300
H446        H  0.70678624  0.44992917  0.73758260     0.19600
H447        H  0.74541033  0.44690934  0.71287464     0.19600
H448        H  0.76164889  0.42345855  0.78782445     0.15500
C449        C  0.78035109  0.06881822  0.74496386     0.30900
C450        C  0.78109270  0.07485107  0.75974685    -0.35400
C451        C  0.75427421  0.07173382  0.76709627     0.16900
C452        C  0.72856012  0.06304157  0.76040250     0.22700
C453        C  0.72794310  0.05657645  0.74567496    -0.33600
C454        C  0.75466297  0.05994720  0.73830507     0.16800
O455        O  0.80210622  0.07289856  0.73578639    -0.25600
C456        C  0.79016223  0.06653472  0.72310089     0.06600
C457        C  0.76075739  0.05820083  0.72402670    -0.30500
O458        O  0.70562610  0.06348557  0.76910896    -0.22300
C459        C  0.71678004  0.07255521  0.78156055    -0.02300
C460        C  0.74696776  0.07789985  0.78095585    -0.16700
H461        H  0.80086495  0.08260577  0.76502203     0.21300
H462        H  0.70777398  0.05051662  0.74022881     0.19600
H463        H  0.74566431  0.05321967  0.71535624     0.19600
H464        H  0.76119835  0.08615001  0.78936891     0.15500
C465        C  0.83157891  0.22654746  0.67429523     0.30900
C466        C  0.83005321  0.25190751  0.66570446    -0.35400
C467        C  0.83128889  0.27882868  0.67303227     0.16900
C468        C  0.83391749  0.28062796  0.68777872     0.22700
C469        C  0.83549397  0.25533155  0.69634939    -0.33600
C470        C  0.83420010  0.22847450  0.68903643     0.16800
O471        O  0.83070625  0.19907113  0.66975875    -0.25600
C472        C  0.83275869  0.18331087  0.68177130     0.06600
C473        C  0.83504006  0.20042863  0.69407569    -0.30500
O474        O  0.83493544  0.30796603  0.69239168    -0.22300
C475        C  0.83289897  0.32392015  0.68046291    -0.02300
C476        C  0.83056208  0.30702943  0.66807245    -0.16700
H477        H  0.82804034  0.25073226  0.65413957     0.21300
H478        H  0.83759805  0.25651399  0.70791092     0.19600
H479        H  0.83698946  0.19321163  0.70511803     0.19600
H480        H  0.82890093  0.31446098  0.65705388     0.15500
C481        C  0.47286520  0.44266216  0.82842807     0.30900
C482        C  0.49839746  0.43313514  0.83553870    -0.35400
C483        C  0.52515362  0.44006863  0.82888912     0.16900
C484        C  0.52683155  0.45538084  0.81610669     0.22700
C485        C  0.50121861  0.46534525  0.80908736    -0.33600
C486        C  0.47436032  0.45829396  0.81572851     0.16800
O487        O  0.44559093  0.43659544  0.83221104    -0.25600
C488        C  0.42930919  0.44854166  0.82184457     0.06600
C489        C  0.44596881  0.46246972  0.81131652    -0.30500
O490        O  0.55416205  0.45743582  0.81131364    -0.22300
C491        C  0.57007133  0.44338599  0.82122837    -0.02300
C492        C  0.55317228  0.43229446  0.83241487    -0.16700
H493        H  0.49743174  0.42025978  0.84531048     0.21300
H494        H  0.50211512  0.47681242  0.79890691     0.19600
H495        H  0.43832698  0.47288132  0.80153003     0.19600
H496        H  0.56038403  0.41921702  0.84149377     0.15500
C497        C  0.47034005  0.06986814  0.81836324     0.30900
C498        C  0.49546568  0.06004615  0.81098301    -0.35400
C499        C  0.52270935  0.06583459  0.81755500     0.16900
C500        C  0.52509180  0.08033155  0.83051550     0.22700
C501        C  0.49993654  0.08987868  0.83798887    -0.33600
C502        C  0.47268697  0.08413198  0.83138953     0.16800
O503        O  0.44283217  0.06812278  0.81379588    -0.25600
C504        C  0.42729707  0.08137319  0.82403641     0.06600
C505        C  0.44470971  0.09174207  0.83526488    -0.30500
O506        O  0.55276707  0.08539671  0.83414192    -0.22300
C507        C  0.56834618  0.07388333  0.82340298    -0.02300
C508        C  0.55079005  0.06123295  0.81282804    -0.16700
H509        H  0.49391864  0.04940302  0.80062056     0.21300
H510        H  0.50154148  0.10178437  0.84801613     0.19600
H511        H  0.43781984  0.10387599  0.84467767     0.19600
H512        H  0.55766965  0.05153710  0.80276375     0.15500
C513        C  0.33561421  0.29213943  0.81542313     0.30900
C514        C  0.33717905  0.26672727  0.80697797    -0.35400
C515        C  0.33492381  0.23996187  0.81432433     0.16900
C516        C  0.33151889  0.23813586  0.82902121     0.22700
C517        C  0.33007935  0.26367905  0.83752554    -0.33600
C518        C  0.33219811  0.29060358  0.83013266     0.16800
O519        O  0.33676934  0.31936895  0.81064123    -0.25600
C520        C  0.33405274  0.33569035  0.82239139     0.06600
C521        C  0.33117477  0.31903316  0.83488249    -0.30500
O522        O  0.32968454  0.21061399  0.83355022    -0.22300
C523        C  0.33185120  0.19479465  0.82155445    -0.02300
C524        C  0.33519195  0.21192458  0.80930560    -0.16700
H525        H  0.33973658  0.26776970  0.79543666     0.21300
H526        H  0.32728791  0.26264240  0.84905463     0.19600
H527        H  0.32854889  0.32674567  0.84579848     0.19600
H528        H  0.33749898  0.20471375  0.79829042     0.15500
C529        C  0.97036517  0.07299197  0.67205194     0.30900
C530        C  0.99564854  0.08263449  0.66485554    -0.35400
C531        C  0.02264382  0.07451766  0.67103295     0.16900
C532        C  0.02471999  0.05798546  0.68344158     0.22700
C533        C  0.99934599  0.04797510  0.69054480    -0.33600
C534        C  0.97226895  0.05616718  0.68437503     0.16800
O535        O  0.94302255  0.08000913  0.66873834    -0.25600
C536        C  0.92711223  0.06743532  0.67900644     0.06600
C537        C  0.94406128  0.05214452  0.68901542    -0.30500
O538        O  0.05222965  0.05485862  0.68788227    -0.22300
C539        C  0.06788681  0.06951820  0.67815517    -0.02300
C540        C  0.05062691  0.08203798  0.66739442    -0.16700
H541        H  0.99434853  0.09642828  0.65539157     0.21300
H542        H  0.00061548  0.03559210  0.70046104     0.19600
H543        H  0.93677846  0.04105322  0.69866423     0.19600
H544        H  0.05760421  0.09582707  0.65855221     0.15500
C545        C  0.24720459  0.07414151  0.73602016     0.30900
C546        C  0.27544431  0.07654856  0.74212724    -0.35400
C547        C  0.27684506  0.07528240  0.75717291     0.16900
C548        C  0.25214463  0.07189772  0.76563667     0.22700
C549        C  0.22394480  0.06909012  0.75952123    -0.33600
C550        C  0.22254061  0.07036073  0.74446730     0.16800
O551        O  0.24065162  0.07651217  0.72225266    -0.25600
C552        C  0.21141179  0.07404299  0.72182818     0.06600
C553        C  0.19895132  0.07005978  0.73534007    -0.30500
O554        O  0.25827295  0.07337393  0.77947581    -0.22300
C555        C  0.28729903  0.07760099  0.77989660    -0.02300
C556        C  0.30006107  0.07880807  0.76633633    -0.16700
H557        H  0.29486127  0.08005144  0.73562104     0.21300
H558        H  0.20437479  0.06696646  0.76606069     0.19600
H559        H  0.17584123  0.06833879  0.73807150     0.19600
H560        H  0.32285134  0.08307353  0.76363618     0.15500
C561        C  0.03173869  0.42813370  0.67146366     0.30900
C562        C  0.00607159  0.41785365  0.66473599    -0.35400
C563        C  0.97931207  0.42613475  0.67108736     0.16900
C564        C  0.97775983  0.44352206  0.68320096     0.22700
C565        C  0.00350351  0.45405777  0.68987903    -0.33600
C566        C  0.03036402  0.44562460  0.68355108     0.16800
O567        O  0.05902888  0.42153150  0.66778621    -0.25600
C568        C  0.07550555  0.43500867  0.67759439     0.06600
C569        C  0.05887159  0.45044059  0.68766618    -0.30500
O570        O  0.95034441  0.44743485  0.68764662    -0.22300
C571        C  0.93421170  0.43233707  0.67823296    -0.02300
C572        C  0.95110779  0.41868730  0.66770921    -0.16700
H573        H  0.00693164  0.40369429  0.65541153     0.21300
H574        H  0.00267566  0.46725767  0.69953374     0.19600
H575        H  0.06662385  0.46245556  0.69695739     0.19600
H576        H  0.94369746  0.40468419  0.65903701     0.15500
C577        C  0.25517552  0.44964265  0.76397048     0.30900
C578        C  0.22727847  0.44918305  0.75743993    -0.35400
C579        C  0.22703629  0.44819553  0.74238848     0.16900
C580        C  0.25249000  0.44756538  0.73429614     0.22700
C581        C  0.28041725  0.44844216  0.74082879    -0.33600
C582        C  0.28065799  0.44952878  0.75589307     0.16800
O583        O  0.26049666  0.44867486  0.77788777    -0.25600
C584        C  0.28977027  0.44817817  0.77876013     0.06600
C585        C  0.30350984  0.44879692  0.76541814    -0.30500
O586        O  0.24710642  0.44439623  0.72044711    -0.22300
C587        C  0.21781976  0.44318733  0.71965975    -0.02300
C588        C  0.20418145  0.44563632  0.73297160    -0.16700
H589        H  0.20717835  0.44871170  0.76367331     0.21300
H590        H  0.30053809  0.44742394  0.73462492     0.19600
H591        H  0.32684553  0.44750803  0.76308852     0.19600
H592        H  0.18090591  0.44423087  0.73540733     0.15500
C593        C  0.18118725  0.28027438  0.67427414     0.30900
C594        C  0.18833128  0.25449297  0.66667786    -0.35400
C595        C  0.18032859  0.22784000  0.67326286     0.16900
C596        C  0.16622238  0.22675839  0.68637482     0.22700
C597        C  0.15941038  0.25240815  0.69400636    -0.33600
C598        C  0.16746330  0.27893149  0.68747149     0.16800
O599        O  0.18560588  0.30763693  0.66998320    -0.25600
C600        C  0.17467637  0.32387684  0.68063244     0.06600
C601        C  0.16326477  0.30716420  0.69180613    -0.30500
O602        O  0.16009516  0.19972142  0.69044036    -0.22300
C603        C  0.17052729  0.18310054  0.67987185    -0.02300
C604        C  0.18344065  0.19933766  0.66887087    -0.16700
H605        H  0.19901842  0.25517796  0.65630336     0.21300
H606        H  0.14827269  0.25173489  0.70426640     0.19600
H607        H  0.15274194  0.31476351  0.70154609     0.19600
H608        H  0.19334358  0.19132567  0.65905481     0.15500
C609        C  0.53323390  0.08367708  0.42093386     0.30900
C610        C  0.50726255  0.09081655  0.41341093    -0.35400
C611        C  0.48065043  0.08450339  0.42048689     0.16900
C612        C  0.47970907  0.07214383  0.43402845     0.22700
C613        C  0.50558169  0.06488052  0.44147697    -0.33600
C614        C  0.53206965  0.07104877  0.43440684     0.16800
O615        O  0.56058543  0.08866942  0.41670416    -0.25600
C616        C  0.57696939  0.07894666  0.42762554     0.06600
C617        C  0.56038342  0.06767288  0.43886512    -0.30500
O618        O  0.45258827  0.06882659  0.43881612    -0.22300
C619        C  0.43580517  0.07899864  0.42818386    -0.02300
C620        C  0.45204052  0.08906428  0.41649498    -0.16700
H621        H  0.50775613  0.10094419  0.40289034     0.21300
H622        H  0.50510228  0.05542197  0.45214391     0.19600
H623        H  0.56809785  0.05912599  0.44905902     0.19600
H624        H  0.44392934  0.09878981  0.40663071     0.15500
C625        C  0.24927905  0.98903853  0.61238839     0.30900
C626        C  0.22479102  0.00743185  0.61465714    -0.35400
C627        C  0.21959354  0.01579222  0.62893836     0.16900
C628        C  0.23703306  0.00632503  0.64020593     0.22700
C629        C  0.26160813  0.98815438  0.63791890    -0.33600
C630        C  0.26703070  0.98012699  0.62364355     0.16800
O631        O  0.25859134  0.97901223  0.59990483    -0.25600
C632        C  0.28274061  0.96371989  0.60321798     0.06600
C633        C  0.28910634  0.96369553  0.61782135    -0.30500
O634        O  0.22836610  0.01693595  0.65266707    -0.22300
C635        C  0.20524834  0.03367304  0.64935565    -0.02300
C636        C  0.19878306  0.03391610  0.63473830    -0.16700
H637        H  0.21101294  0.01498559  0.60589300     0.21300
H638        H  0.27572951  0.98107645  0.64664631     0.19600
H639        H  0.30739164  0.95322322  0.62330956     0.19600
H640        H  0.18149515  0.04589876  0.62921653     0.15500
C641        C  0.32274235  0.03623413  0.49486212     0.30900
C642        C  0.33152447  0.03610528  0.50928998    -0.35400
C643        C  0.32510962  0.01050657  0.51704227     0.16900
C644        C  0.31095813  0.98660076  0.51106760     0.22700
C645        C  0.30180159  0.98688055  0.49665581    -0.33600
C646        C  0.30826669  0.01253166  0.48887041     0.16800
O647        O  0.32888977  0.05681460  0.48536678    -0.25600
C648        C  0.31814523  0.04627179  0.47312587     0.06600
C649        C  0.30481500  0.01890875  0.47466450    -0.30500
O650        O  0.30870709  0.96436040  0.52013309    -0.22300
C651        C  0.32147122  0.97432277  0.53204751    -0.02300
C652        C  0.33200946  0.00287512  0.53074305    -0.16700
H653        H  0.34346762  0.05428413  0.51400662     0.21300
H654        H  0.29127496  0.96807296  0.49173501     0.19600
H655        H  0.29566527  0.00497876  0.46636838     0.19600
H656        H  0.34383903  0.01577727  0.53862617     0.15500
C657        C  0.72850376  0.99811511  0.61697314     0.30900
C658        C  0.72725497  0.02165201  0.62665995    -0.35400
C659        C  0.75273591  0.02644137  0.63483532     0.16900
C660        C  0.77771367  0.00920756  0.63362283     0.22700
C661        C  0.77909670  0.98587073  0.62378917    -0.33600
C662        C  0.75362267  0.98114982  0.61555800     0.16800
O663        O  0.70701929  0.98942629  0.60846275    -0.25600
C664        C  0.71856922  0.96672507  0.60143753     0.06600
C665        C  0.74754923  0.96061429  0.60533922    -0.30500
O666        O  0.79871498  0.01723059  0.64260098    -0.22300
C667        C  0.78703533  0.03997732  0.64956860    -0.02300
C668        C  0.75853526  0.04676534  0.64515425    -0.16700
H669        H  0.70770679  0.03512893  0.62782191     0.21300
H670        H  0.79855318  0.97223434  0.62271338     0.19600
H671        H  0.76187414  0.94343066  0.60132146     0.19600
H672        H  0.74411328  0.06393468  0.64910727     0.15500
C673        C  0.68989985  0.00774934  0.51596148     0.30900
C674        C  0.68415528  0.03503215  0.50950807    -0.35400
C675        C  0.68976198  0.03686076  0.49475696     0.16900
C676        C  0.70056551  0.01354214  0.48685823     0.22700
C677        C  0.70674804  0.98628489  0.49337521    -0.33600
C678        C  0.70089159  0.98437239  0.50815743     0.16800
O679        O  0.68368047  0.00056213  0.52931322    -0.25600
C680        C  0.69080372  0.97222205  0.53014696     0.06600
C681        C  0.70185271  0.96095704  0.51734366    -0.30500
O682        O  0.70202592  0.01959542  0.47300073    -0.22300
C683        C  0.69202211  0.04712203  0.47207271    -0.02300
C684        C  0.68417787  0.05895702  0.48527525    -0.16700
H685        H  0.67474527  0.05319959  0.51545741     0.21300
H686        H  0.71439883  0.96755691  0.48724675     0.19600
H687        H  0.70812010  0.93849630  0.51496411     0.19600
H688        H  0.67446266  0.08025726  0.48746376     0.15500
C689        C  0.47543920  0.92236831  0.56208675     0.30900
C690        C  0.50057476  0.91227713  0.55484959    -0.35400
C691        C  0.52771835  0.92014266  0.56090907     0.16900
C692        C  0.53002209  0.93689585  0.57321412     0.22700
C693        C  0.50486325  0.94730820  0.58035769    -0.33600
C694        C  0.47767768  0.93930448  0.57433601     0.16800
O695        O  0.44790146  0.91635103  0.55869798    -0.25600
C696        C  0.43226949  0.92955648  0.56890678     0.06600
C697        C  0.44958708  0.94433056  0.57889458    -0.30500
O698        O  0.55761827  0.94074805  0.57725746    -0.22300
C699        C  0.57311953  0.92634367  0.56738314    -0.02300
C700        C  0.55570944  0.91316243  0.55693092    -0.16700
H701        H  0.49906344  0.89869393  0.54534247     0.21300
H702        H  0.50637445  0.96018312  0.59009887     0.19600
H703        H  0.44252592  0.95631979  0.58832138     0.19600
H704        H  0.56267790  0.89998642  0.54787301     0.15500
C705        C  0.32699245  0.27849305  0.42372482     0.30900
C706        C  0.33631942  0.25308581  0.41653713    -0.35400
C707        C  0.32906691  0.22628695  0.42303241     0.16900
C708        C  0.31348785  0.22438870  0.43571223     0.22700
C709        C  0.30391733  0.24992142  0.44288720    -0.33600
C710        C  0.31139636  0.27688277  0.43641491     0.16800
O711        O  0.33287844  0.30575149  0.41988982    -0.25600
C712        C  0.32093297  0.32201422  0.43022163     0.06600
C713        C  0.30720418  0.30527005  0.44080713    -0.30500
O714        O  0.31041946  0.19688273  0.44012921    -0.22300
C715        C  0.32426428  0.18115788  0.43010871    -0.02300
C716        C  0.33620401  0.19833518  0.41924457    -0.16700
H717        H  0.34907095  0.25415605  0.40674204     0.21300
H718        H  0.29218044  0.24886651  0.45298003     0.19600
H719        H  0.29656753  0.31287273  0.45051603     0.19600
H720        H  0.34903445  0.19125643  0.41008407     0.15500
C721        C  0.69208917  0.22864288  0.43746294     0.30900
C722        C  0.69952666  0.25401499  0.44530422    -0.35400
C723        C  0.69337915  0.28106595  0.43858154     0.16900
C724        C  0.68084657  0.28292432  0.42509000     0.22700
C725        C  0.67356259  0.25767929  0.41725919    -0.33600
C726        C  0.67961943  0.23075634  0.42397167     0.16800
O727        O  0.69497595  0.20104099  0.44177112    -0.25600
C728        C  0.68425032  0.18542762  0.43084416     0.06600
C729        C  0.67436373  0.20280721  0.41952408    -0.30500
O730        O  0.67569304  0.31023837  0.42108805    -0.22300
C731        C  0.68505382  0.32622558  0.43212308    -0.02300
C732        C  0.69639008  0.30931713  0.44332754    -0.16700
H733        H  0.70891105  0.25276655  0.45597726     0.21300
H734        H  0.66332958  0.25894924  0.40677272     0.19600
H735        H  0.66427376  0.19582712  0.40955971     0.19600
H736        H  0.70462600  0.31671444  0.45361816     0.15500
C737        C  0.52941631  0.41311855  0.43559353     0.30900
C738        C  0.50410729  0.40194187  0.44217549    -0.35400
C739        C  0.47722055  0.41168223  0.43651831     0.16900
C740        C  0.47522389  0.43108597  0.42513830     0.22700
C741        C  0.50064520  0.44235770  0.41854710    -0.33600
C742        C  0.52765498  0.43260624  0.42423410     0.16800
O743        O  0.55675466  0.40697617  0.43925894    -0.25600
C744        C  0.57282114  0.42276106  0.43018594     0.06600
C745        C  0.55597782  0.43914023  0.42054635    -0.30500
O746        O  0.44763782  0.43691607  0.42155688    -0.22300
C747        C  0.43195116  0.42101111  0.43079371    -0.02300
C748        C  0.44919626  0.40494753  0.44034376    -0.16700
H749        H  0.50530648  0.38669102  0.45109254     0.21300
H750        H  0.49945240  0.45760246  0.40962638     0.19600
H751        H  0.56350887  0.45376030  0.41214327     0.19600
H752        H  0.44206947  0.39027473  0.44880902     0.15500
C753        C  0.22491427  0.50302649  0.63160205     0.30900
C754        C  0.22540687  0.52921781  0.62356335    -0.35400
C755        C  0.24896367  0.53228724  0.61391110     0.16900
C756        C  0.27062164  0.51114309  0.61237323     0.22700
C757        C  0.27006046  0.48495608  0.62034550    -0.33600
C758        C  0.24642439  0.48179463  0.62989373     0.16800
O759        O  0.20517303  0.49565085  0.64136589    -0.25600
C760        C  0.21409060  0.46926712  0.64587741     0.06600
C761        C  0.23959209  0.45953620  0.63908222    -0.30500
O762        O  0.29085464  0.51867321  0.60293317    -0.22300
C763        C  0.28203724  0.54493912  0.59828649    -0.02300
C764        C  0.25603579  0.55453369  0.60469905    -0.16700
H765        H  0.20867531  0.54603020  0.62477959     0.21300
H766        H  0.28692131  0.46824836  0.61920627     0.19600
H767        H  0.25157944  0.43922499  0.64083593     0.19600
H768        H  0.24430817  0.57499250  0.60294025     0.15500
C769        C  0.30653178  0.78496452  0.56916039     0.30900
C770        C  0.29448768  0.75995143  0.56254125    -0.35400
C771        C  0.30309670  0.73266657  0.56830618     0.16900
C772        C  0.32208091  0.73019344  0.57985098     0.22700
C773        C  0.33362858  0.75517410  0.58664478    -0.33600
C774        C  0.32525000  0.78238412  0.58079916     0.16800
O775        O  0.30337857  0.81251026  0.56485421    -0.25600
C776        C  0.32029654  0.82769135  0.57387922     0.06600
C777        C  0.33432643  0.81008893  0.58404138    -0.30500
O778        O  0.32951061  0.70268246  0.58258324    -0.22300
C779        C  0.31507921  0.68725850  0.57268850    -0.02300
C780        C  0.29803930  0.70471904  0.56359807    -0.16700
H781        H  0.28046063  0.76159820  0.55316422     0.21300
H782        H  0.34915914  0.75347955  0.59544037     0.19600
H783        H  0.34980669  0.81667405  0.59228246     0.19600
H784        H  0.28534709  0.69795490  0.55432712     0.15500
C785        C  0.30940474  0.51369402  0.51204488     0.30900
C786        C  0.30412685  0.48575547  0.50612973    -0.35400
C787        C  0.31025447  0.48267476  0.49143265     0.16900
C788        C  0.32092953  0.50551578  0.48317821     0.22700
C789        C  0.32581192  0.53349368  0.48903915    -0.33600
C790        C  0.31967562  0.53657473  0.50370062     0.16800
O791        O  0.30695335  0.52102358  0.52569754    -0.25600
C792        C  0.31559064  0.54899764  0.52607094     0.06600
C793        C  0.32371154  0.55983903  0.51268959    -0.30500
O794        O  0.32700705  0.49738169  0.46994003    -0.22300
C795        C  0.31996387  0.46900880  0.46963045    -0.02300
C796        C  0.30920904  0.45863784  0.48267042    -0.16700
H797        H  0.29658927  0.46750448  0.51261481     0.21300
H798        H  0.33462467  0.55138038  0.48269794     0.19600
H799        H  0.33254008  0.58129170  0.51009282     0.19600
H800        H  0.30274324  0.43643587  0.48542313     0.15500
C801        C  0.77857537  0.50302771  0.63494429     0.30900
C802        C  0.77603785  0.52976901  0.62743866    -0.35400
C803        C  0.75204468  0.53215274  0.61792905     0.16900
C804        C  0.73187909  0.50981980  0.61597656     0.22700
C805        C  0.73456217  0.48302154  0.62337997    -0.33600
C806        C  0.75860346  0.48058948  0.63281867     0.16800
O807        O  0.79891705  0.49621169  0.64458214    -0.25600
C808        C  0.79197358  0.46895825  0.64857974     0.06600
C809        C  0.76716821  0.45811346  0.64157027    -0.30500
O810        O  0.71099386  0.51683916  0.60667952    -0.22300
C811        C  0.71787825  0.54401636  0.60256157    -0.02300
C812        C  0.74325442  0.55464702  0.60918864    -0.16700
H813        H  0.79157296  0.54752033  0.62896274     0.21300
H814        H  0.71892631  0.46533251  0.62192288     0.19600
H815        H  0.75667557  0.43693799  0.64294061     0.19600
H816        H  0.75365631  0.57584899  0.60776696     0.15500
C817        C  0.69423122  0.78322383  0.56924360     0.30900
C818        C  0.70577062  0.75750955  0.56301084    -0.35400
C819        C  0.69693235  0.73079519  0.56925356     0.16900
C820        C  0.67798429  0.72948908  0.58081416     0.22700
C821        C  0.66678310  0.75517629  0.58716152    -0.33600
C822        C  0.67563135  0.78184196  0.58093355     0.16800
O823        O  0.69821114  0.81045402  0.56466121    -0.25600
C824        C  0.68207093  0.82670550  0.57359372     0.06600
C825        C  0.66763052  0.81006202  0.58395233    -0.30500
O826        O  0.67075678  0.70226268  0.58421367    -0.22300
C827        C  0.68537521  0.68582396  0.57477397    -0.02300
C828        C  0.70221528  0.70238300  0.56526662    -0.16700
H829        H  0.71993052  0.75824200  0.55367824     0.21300
H830        H  0.65147673  0.75439762  0.59605289     0.19600
H831        H  0.65263502  0.81760707  0.59219903     0.19600
H832        H  0.71507510  0.69467965  0.55623737     0.15500
C833        C  0.68233034  0.53763281  0.50768281     0.30900
C834        C  0.67550010  0.53816874  0.49296276    -0.35400
C835        C  0.68016302  0.51179503  0.48544988     0.16900
C836        C  0.69099738  0.48667038  0.49193985     0.22700
C837        C  0.69792209  0.48617409  0.50663967    -0.33600
C838        C  0.69306724  0.51246969  0.51417169     0.16800
O839        O  0.67804434  0.55924414  0.51691745    -0.25600
C840        C  0.68612848  0.54777423  0.52949091     0.06600
C841        C  0.69568489  0.51873976  0.52842245    -0.30500
O842        O  0.69237441  0.46411987  0.48304160    -0.22300
C843        C  0.68219778  0.47488854  0.47069004    -0.02300
C844        C  0.67434439  0.50446830  0.47154158    -0.16700
H845        H  0.66641441  0.55753705  0.48781660     0.21300
H846        H  0.70577967  0.46642754  0.51191717     0.19600
H847        H  0.70242978  0.50406002  0.53698529     0.19600
H848        H  0.66493093  0.51827903  0.46323143     0.15500
C849        C  0.52643811  0.58564242  0.57652152     0.30900
C850        C  0.50055063  0.58093570  0.58446634    -0.35400
C851        C  0.47388741  0.58373699  0.57687293     0.16900
C852        C  0.47278585  0.59069312  0.56245097     0.22700
C853        C  0.49861574  0.59546515  0.55452040    -0.33600
C854        C  0.52522990  0.59267846  0.56211070     0.16800
O855        O  0.55377827  0.58393623  0.58140756    -0.25600
C856        C  0.57026820  0.58993793  0.56996064     0.06600
C857        C  0.55365337  0.59564968  0.55768131    -0.30500
O858        O  0.44555347  0.59268933  0.55754963    -0.22300
C859        C  0.42891777  0.58701245  0.56897303    -0.02300
C860        C  0.44533777  0.58120064  0.58129998    -0.16700
H861        H  0.50115159  0.57551952  0.59578224     0.21300
H862        H  0.49799935  0.60105182  0.54322247     0.19600
H863        H  0.56143983  0.60100392  0.54701590     0.19600
H864        H  0.43737703  0.57633821  0.59198858     0.15500
C865        C  0.75424508  0.48579863  0.38997858     0.30900
C866        C  0.77532960  0.50774950  0.38761564    -0.35400
C867        C  0.78131545  0.51444749  0.37322845     0.16900
C868        C  0.76783571  0.50024128  0.36190088     0.22700
C869        C  0.74663027  0.47827407  0.36426819    -0.33600
C870        C  0.74031951  0.47186311  0.37869250     0.16800
O871        O  0.74440299  0.47712631  0.40258142    -0.25600
C872        C  0.72370631  0.45756688  0.39936283     0.06600
C873        C  0.72015330  0.45333565  0.38466381    -0.30500
O874        O  0.77647086  0.51047614  0.34931825    -0.22300
C875        C  0.79552694  0.53165164  0.35267220    -0.02300
C876        C  0.79934274  0.53510989  0.36738546    -0.16700
H877        H  0.78585512  0.51926293  0.39639250     0.21300
H878        H  0.73540472  0.46741514  0.35549805     0.19600
H879        H  0.70453618  0.43924815  0.37921185     0.19600
H880        H  0.81316564  0.55078599  0.37294881     0.15500
C881        C  0.73434042  0.01230569  0.38298495     0.30900
C882        C  0.73362825  0.98924587  0.37298511    -0.35400
C883        C  0.75947888  0.98481933  0.36501840     0.16900
C884        C  0.78430756  0.00199018  0.36665449     0.22700
C885        C  0.78505570  0.02499433  0.37671690    -0.33600
C886        C  0.75924045  0.02931179  0.38476611     0.16800
O887        O  0.71258852  0.02040337  0.39151324    -0.25600
C888        C  0.72370234  0.04287274  0.39889001     0.06600
C889        C  0.75267955  0.04932597  0.39518458    -0.30500
O890        O  0.80597626  0.99389896  0.35803071    -0.22300
C891        C  0.79488903  0.97108657  0.35088620    -0.02300
C892        C  0.76606910  0.96450029  0.35479629    -0.16700
H893        H  0.71429707  0.97566896  0.37153465     0.21300
H894        H  0.80439996  0.03853766  0.37818529     0.19600
H895        H  0.76672984  0.06641095  0.39946916     0.19600
H896        H  0.75203842  0.94721818  0.35068215     0.15500
C897        C  0.84314409  0.78080103  0.31400395     0.30900
C898        C  0.85061399  0.75485547  0.30671626    -0.35400
C899        C  0.84388052  0.72846153  0.31378571     0.16900
C900        C  0.83062104  0.72748984  0.32710221     0.22700
C901        C  0.82344492  0.75350904  0.33447891    -0.33600
C902        C  0.83028071  0.77997877  0.32741747     0.16800
O903        O  0.84721689  0.80788061  0.30930201    -0.25600
C904        C  0.83701982  0.82469307  0.31988088     0.06600
C905        C  0.82629286  0.80855167  0.33144817    -0.30500
O906        O  0.82591092  0.70024827  0.33155320    -0.22300
C907        C  0.83643236  0.68365970  0.32093692    -0.02300
C908        C  0.84793802  0.70006850  0.30965919    -0.16700
H909        H  0.86083304  0.75521330  0.29623188     0.21300
H910        H  0.81315125  0.75315572  0.34494664     0.19600
H911        H  0.81686051  0.81671728  0.34134070     0.19600
H912        H  0.85771192  0.69215859  0.29979630     0.15500
C913        C  0.76082122  0.95246172  0.26452615     0.30900
C914        C  0.73258259  0.95548857  0.25845186    -0.35400
C915        C  0.73120502  0.95501452  0.24338823     0.16900
C916        C  0.75596570  0.95206164  0.23491148     0.22700
C917        C  0.78420011  0.94957010  0.24097576    -0.33600
C918        C  0.78554866  0.94975893  0.25601323     0.16800
O919        O  0.76695094  0.94964137  0.27831983    -0.25600
C920        C  0.79598371  0.94520721  0.27863651     0.06600
C921        C  0.80873484  0.94518483  0.26507408    -0.30500
O922        O  0.74947578  0.94931982  0.22118092    -0.22300
C923        C  0.72018444  0.95050124  0.22080456    -0.02300
C924        C  0.70757888  0.95426963  0.23429762    -0.16700
H925        H  0.71295618  0.95671207  0.26501163     0.21300
H926        H  0.80361756  0.94629421  0.23443244     0.19600
H927        H  0.83149522  0.94091944  0.26227603     0.19600
H928        H  0.68442063  0.95456050  0.23707189     0.15500
C929        C  0.74846342  0.56981672  0.23701097     0.30900
C930        C  0.77617160  0.56552644  0.24344414    -0.35400
C931        C  0.77723711  0.56884670  0.25841634     0.16900
C932        C  0.75275949  0.57602086  0.26648445     0.22700
C933        C  0.72501335  0.57995517  0.26007281    -0.33600
C934        C  0.72392162  0.57652913  0.24512399     0.16800
O935        O  0.74274464  0.56956706  0.22311822    -0.25600
C936        C  0.71413686  0.57600667  0.22234908     0.06600
C937        C  0.70124751  0.58041486  0.23570548    -0.30500
O938        O  0.75905537  0.57963063  0.28019663    -0.22300
C939        C  0.78790011  0.57448105  0.28095734    -0.02300
C940        C  0.80038913  0.56755070  0.26774769    -0.16700
H941        H  0.79565424  0.56068271  0.23718225     0.21300
H942        H  0.70577036  0.58599175  0.26626472     0.19600
H943        H  0.67879075  0.58686589  0.23806701     0.19600
H944        H  0.82331696  0.56321970  0.26532071     0.15500
C945        C  0.67228680  0.78844363  0.17359150     0.30900
C946        C  0.67305835  0.76288357  0.16510989    -0.35400
C947        C  0.67350076  0.73600651  0.17258068     0.16900
C948        C  0.67305454  0.73437490  0.18737932     0.22700
C949        C  0.67225688  0.75988083  0.19585100    -0.33600
C950        C  0.67191899  0.78672003  0.18838715     0.16800
O951        O  0.67220973  0.81591621  0.16889800    -0.25600
C952        C  0.67184983  0.83197076  0.18086115     0.06600
C953        C  0.67155622  0.81493443  0.19328572    -0.30500
O954        O  0.67329284  0.70701272  0.19212656    -0.22300
C955        C  0.67402094  0.69085595  0.18022106    -0.02300
C956        C  0.67421295  0.70770071  0.16773577    -0.16700
H957        H  0.67340311  0.76387656  0.15349937     0.21300
H958        H  0.67197739  0.75887378  0.20746174     0.19600
H959        H  0.67139078  0.82231710  0.20433020     0.19600
H960        H  0.67446197  0.70015455  0.15671758     0.15500
C961        C  0.22662343  0.51512716  0.36935102     0.30900
C962        C  0.23163589  0.51191365  0.38413768    -0.35400
C963        C  0.25168449  0.48985149  0.38815382     0.16900
C964        C  0.26614102  0.47237697  0.37829475     0.22700
C965        C  0.26083088  0.47533892  0.36349315    -0.33600
C966        C  0.24047191  0.49719256  0.35947934     0.16800
O967        O  0.20926696  0.53481369  0.36324652    -0.25600
C968        C  0.21168779  0.52923191  0.34928495     0.06600
C969        C  0.23071529  0.50597115  0.34628105    -0.30500
O970        O  0.28487500  0.45394777  0.38442462    -0.22300
C971        C  0.28209790  0.45947701  0.39839077    -0.02300
C972        C  0.26165950  0.48150800  0.40134716    -0.16700
H973        H  0.22084627  0.52583199  0.39195889     0.21300
H974        H  0.27198288  0.46174468  0.35565678     0.19600
H975        H  0.23693429  0.49730585  0.33589538     0.19600
H976        H  0.25563949  0.49055488  0.41168344     0.15500
C977        C  0.02930471  0.55659585  0.31490425     0.30900
C978        C  0.00329027  0.55168378  0.30706108    -0.35400
C979        C  0.97678033  0.55775644  0.31425715     0.16900
C980        C  0.97594930  0.56805843  0.32818915     0.22700
C981        C  0.00190127  0.57263134  0.33607539    -0.33600
C982        C  0.02834751  0.56648194  0.32890555     0.16800
O983        O  0.05651985  0.55450429  0.30997867    -0.25600
C984        C  0.07313680  0.56304962  0.32100494     0.06600
C985        C  0.05678761  0.57055148  0.33307767    -0.30500
O986        O  0.94893019  0.57397659  0.33253604    -0.22300
C987        C  0.93214202  0.56714142  0.32130094    -0.02300
C988        C  0.94825326  0.55685914  0.30962515    -0.16700
H989        H  0.00370795  0.54449095  0.29598904     0.21300
H990        H  0.00153037  0.58122884  0.34690579     0.19600
H991        H  0.06466640  0.57931858  0.34317826     0.19600
H992        H  0.94020061  0.55072853  0.29910035     0.15500
C993        C  0.27751688  0.00605489  0.38492113     0.30900
C994        C  0.27515731  0.97949339  0.37736391    -0.35400
C995        C  0.25196619  0.97773696  0.36742966     0.16900
C996        C  0.23252724  0.00060417  0.36493914     0.22700
C997        C  0.23484882  0.02720389  0.37253337    -0.33600
C998        C  0.25790435  0.02885581  0.38260328     0.16800
O999        O  0.29739559  0.01230454  0.39481281    -0.25600
C1000       C  0.29033405  0.03940430  0.39898635     0.06600
C1001       C  0.26592786  0.05080435  0.39177265    -0.30500
O1002       O  0.21258095  0.99408030  0.35508361    -0.22300
C1003       C  0.21931363  0.96661364  0.35131661    -0.02300
C1004       C  0.24356300  0.95536985  0.35866573    -0.16700
H1005       H  0.29024698  0.96137555  0.37916832     0.21300
H1006       H  0.21965695  0.04525723  0.37078452     0.19600
H1007       H  0.25567071  0.07215344  0.39309075     0.19600
H1008       H  0.25362107  0.93385809  0.35762390     0.15500
C1009       C  0.98086686  0.94297262  0.31631627     0.30900
C1010       C  0.00646209  0.95115018  0.30883731    -0.35400
C1011       C  0.03341631  0.94437983  0.31554689     0.16900
C1012       C  0.03507498  0.93057977  0.32873491     0.22700
C1013       C  0.00950213  0.92258381  0.33625050    -0.33600
C1014       C  0.98257725  0.92916949  0.32950054     0.16800
O1015       O  0.95341770  0.94594782  0.31174872    -0.25600
C1016       C  0.93733063  0.93380783  0.32212292     0.06600
C1017       C  0.95432642  0.92297445  0.33342324    -0.30500
O1018       O  0.06246724  0.92461014  0.33259107    -0.22300
C1019       C  0.07864199  0.93477756  0.32176486    -0.02300
C1020       C  0.06174573  0.94745370  0.31088435    -0.16700
H1021       H  0.00544063  0.96134993  0.29834020     0.21300
H1022       H  0.01054024  0.91120061  0.34645446     0.19600
H1023       H  0.94694913  0.91158524  0.34297182     0.19600
H1024       H  0.06917897  0.95631895  0.30072859     0.15500
C1025       C  0.17874715  0.72233104  0.32470180     0.30900
C1026       C  0.18741994  0.74740742  0.33243968    -0.35400
C1027       C  0.18083034  0.77466006  0.32604273     0.16900
C1028       C  0.16683204  0.77700251  0.31291703     0.22700
C1029       C  0.15810909  0.75199348  0.30521786    -0.33600
C1030       C  0.16456257  0.72481986  0.31163208     0.16800
O1031       O  0.18242769  0.69465979  0.32868118    -0.25600
C1032       C  0.17030248  0.67931168  0.31803839     0.06600
C1033       C  0.15887171  0.69693015  0.30714125    -0.30500
O1034       O  0.16288850  0.80453214  0.30889097    -0.22300
C1035       C  0.17438990  0.82013423  0.31958246    -0.02300
C1036       C  0.18587416  0.80274917  0.33058236    -0.16700
H1037       H  0.19841229  0.74578401  0.34273048     0.21300
H1038       H  0.14697655  0.75362075  0.29496457     0.19600
H1039       H  0.14790638  0.69014227  0.29736603     0.19600
H1040       H  0.19638838  0.80979002  0.34043260     0.15500
C1041       C  0.47869562  0.58539910  0.17105706     0.30900
C1042       C  0.50404898  0.59475541  0.16377751    -0.35400
C1043       C  0.53106470  0.58563125  0.16964039     0.16900
C1044       C  0.53304293  0.56841831  0.18182697     0.22700
C1045       C  0.50764006  0.55887379  0.18905733    -0.33600
C1046       C  0.48058335  0.56806612  0.18320712     0.16800
O1047       O  0.45132474  0.59275408  0.16787991    -0.25600
C1048       C  0.43539184  0.57995624  0.17809447     0.06600
C1049       C  0.45239089  0.56419609  0.18791960    -0.30500
O1050       O  0.56057647  0.56405745  0.18594590    -0.22300
C1051       C  0.57642122  0.57861959  0.17625862    -0.02300
C1052       C  0.55921920  0.59235872  0.16582468    -0.16700
H1053       H  0.50280978  0.60887491  0.15442701     0.21300
H1054       H  0.50890903  0.54591396  0.19879630     0.19600
H1055       H  0.44512037  0.55251730  0.19740312     0.19600
H1056       H  0.56637366  0.60640765  0.15711467     0.15500
C1057       C  0.25751942  0.57145514  0.23463287     0.30900
C1058       C  0.22925701  0.56865059  0.24057531    -0.35400
C1059       C  0.22788803  0.56840855  0.25561717     0.16900
C1060       C  0.25259541  0.57088834  0.26420679     0.22700
C1061       C  0.28087547  0.57318644  0.25826802    -0.33600
C1062       C  0.28225045  0.57335875  0.24324024     0.16800
O1063       O  0.26378736  0.57399974  0.22086949    -0.25600
C1064       C  0.29291604  0.57738487  0.22068592     0.06600
C1065       C  0.30560348  0.57701691  0.23427772    -0.30500
O1066       O  0.24605274  0.57232654  0.27796515    -0.22300
C1067       C  0.21680863  0.57043161  0.27819892    -0.02300
C1068       C  0.20428815  0.56779416  0.26462445    -0.16700
H1069       H  0.20966997  0.56761361  0.23395228     0.21300
H1070       H  0.30033579  0.57558685  0.26489218     0.19600
H1071       H  0.32851313  0.58014982  0.23714121     0.19600
H1072       H  0.18115326  0.56696449  0.26179855     0.15500
C1073       C  0.53475235  0.94118445  0.17241946     0.30900
C1074       C  0.50945994  0.93170849  0.16514855    -0.35400
C1075       C  0.48246113  0.94011950  0.17114120     0.16900
C1076       C  0.48031980  0.95681970  0.18346150     0.22700
C1077       C  0.50575429  0.96646922  0.19074393    -0.33600
C1078       C  0.53290979  0.95793188  0.18474252     0.16800
O1079       O  0.56208777  0.93451072  0.16898100    -0.25600
C1080       C  0.57819590  0.94712873  0.17917560     0.06600
C1081       C  0.56127245  0.96207997  0.18931039    -0.30500
O1082       O  0.45266244  0.96065371  0.18754511    -0.22300
C1083       C  0.43705066  0.94618241  0.17768626    -0.02300
C1084       C  0.45447771  0.93310607  0.16722080    -0.16700
H1085       H  0.51075315  0.91805144  0.15565834     0.21300
H1086       H  0.50446069  0.97907020  0.20057667     0.19600
H1087       H  0.56871276  0.97343590  0.19885704     0.19600
H1088       H  0.44756113  0.91941700  0.15833492     0.15500
C1089       C  0.26105593  0.94586982  0.23552379     0.30900
C1090       C  0.23284361  0.94490078  0.24165702    -0.35400
C1091       C  0.23191432  0.94158558  0.25662117     0.16900
C1092       C  0.25699157  0.93934075  0.26497426     0.22700
C1093       C  0.28520393  0.94052450  0.25884800    -0.33600
C1094       C  0.28614007  0.94392319  0.24388959     0.16800
O1095       O  0.26704338  0.94686778  0.22168986    -0.25600
C1096       C  0.29633700  0.94572852  0.22119919     0.06600
C1097       C  0.30942751  0.94405226  0.23468553    -0.30500
O1098       O  0.25096637  0.93526207  0.27867880    -0.22300
C1099       C  0.22164713  0.93504368  0.27911265    -0.02300
C1100       C  0.20860065  0.93886938  0.26571103    -0.16700
H1101       H  0.21303467  0.94593742  0.23518723     0.21300
H1102       H  0.30500504  0.93830677  0.26525356     0.19600
H1103       H  0.33257827  0.94161285  0.23726462     0.19600
H1104       H  0.18537141  0.93898794  0.26304060     0.15500
C1105       C  0.33837887  0.73604477  0.18621780     0.30900
C1106       C  0.34145049  0.76143423  0.19461136    -0.35400
C1107       C  0.33912781  0.78830026  0.18729791     0.16900
C1108       C  0.33405059  0.79020353  0.17271158     0.22700
C1109       C  0.33090171  0.76471180  0.16429058    -0.33600
C1110       C  0.33332682  0.73773265  0.17162010     0.16800
O1111       O  0.34024755  0.70872409  0.19088051    -0.25600
C1112       C  0.33639213  0.69254198  0.17914577     0.06600
C1113       C  0.33197201  0.70937435  0.16681081    -0.30500
O1114       O  0.33316940  0.81774196  0.16811802    -0.22300
C1115       C  0.33778780  0.83356791  0.17994395    -0.02300
C1116       C  0.34157644  0.81637574  0.19217378    -0.16700
H1117       H  0.34562162  0.76030836  0.20604129     0.21300
H1118       H  0.32710119  0.76582849  0.15283000     0.19600
H1119       H  0.32850859  0.70181721  0.15592333     0.19600
H1120       H  0.34581362  0.82356056  0.20305752     0.15500
C1121       C  0.24398693  0.98381028  0.88281035     0.30900
C1122       C  0.27130677  0.98723695  0.87590562    -0.35400
C1123       C  0.27348160  0.01110784  0.86635963     0.16900
C1124       C  0.25045055  0.03036743  0.86386873     0.22700
C1125       C  0.22308181  0.02671536  0.87061278    -0.33600
C1126       C  0.22084398  0.00277435  0.88005201     0.16800
O1127       O  0.23738057  0.96388433  0.89263379    -0.25600
C1128       C  0.20957158  0.97010691  0.89609962     0.06600
C1129       C  0.19812611  0.99392553  0.88852124    -0.30500
O1130       O  0.25742296  0.05147559  0.85476733    -0.22300
C1131       C  0.28522365  0.04556007  0.85125429    -0.02300
C1132       C  0.29637641  0.02066006  0.85811187    -0.16700
H1133       H  0.28966099  0.97257030  0.87796063     0.21300
H1134       H  0.20488905  0.04168587  0.86874631     0.19600
H1135       H  0.17656377  0.00395257  0.88953220     0.19600
H1136       H  0.31817516  0.01112550  0.85718955     0.15500
C1137       C  0.74643020  0.99170600  0.89042096     0.30900
C1138       C  0.72856036  0.01642960  0.88788752    -0.35400
C1139       C  0.72057055  0.02151933  0.87354228     0.16900
C1140       C  0.72919436  0.00329365  0.86246518     0.22700
C1141       C  0.74722916  0.97865650  0.86498840    -0.33600
C1142       C  0.75557151  0.97380222  0.87931529     0.16800
O1143       O  0.75718829  0.98336623  0.90294579    -0.25600
C1144       C  0.77368841  0.96000820  0.89981215     0.06600
C1145       C  0.77356344  0.95303178  0.88527511    -0.30500
O1146       O  0.71922924  0.01227275  0.84987814    -0.22300
C1147       C  0.70425174  0.03669830  0.85292392    -0.02300
C1148       C  0.70441813  0.04358573  0.86746840    -0.16700
H1149       H  0.72172722  0.03092652  0.89647577     0.21300
H1150       H  0.75458372  0.96451453  0.85636032     0.19600
H1151       H  0.78531402  0.93547972  0.87989216     0.19600
H1152       H  0.69417949  0.06216142  0.87276207     0.15500
C1153       C  0.02170419  0.91729623  0.93666419     0.30900
C1154       C  0.99672131  0.90585487  0.94351712    -0.35400
C1155       C  0.96943516  0.91336607  0.93741447     0.16900
C1156       C  0.96678890  0.93102925  0.92541156     0.22700
C1157       C  0.99182145  0.94256953  0.91856919    -0.33600
C1158       C  0.01917655  0.93492067  0.92463890     0.16800
O1159       O  0.04936765  0.91266520  0.94044602    -0.25600
C1160       C  0.06483695  0.92741466  0.93069529     0.06600
C1161       C  0.04723303  0.94171166  0.92059283    -0.30500
O1162       O  0.93902783  0.93511841  0.92154244    -0.22300
C1163       C  0.92376942  0.91985169  0.93120895    -0.02300
C1164       C  0.94155830  0.90589054  0.94132387    -0.16700
H1165       H  0.99844692  0.89190063  0.95290771     0.21300
H1166       H  0.99010580  0.95637516  0.90912437     0.19600
H1167       H  0.05413909  0.95498616  0.91155308     0.19600
H1168       H  0.93486784  0.89229744  0.95028820     0.15500
C1169       C  0.26086182  0.99516718  0.13562780     0.30900
C1170       C  0.23525816  0.99567040  0.12717186    -0.35400
C1171       C  0.23244379  0.01948391  0.11769913     0.16900
C1172       C  0.25339293  0.04132557  0.11656180     0.22700
C1173       C  0.27890064  0.04100364  0.12515615    -0.33600
C1174       C  0.28168782  0.01717081  0.13468786     0.16800
O1175       O  0.26838524  0.97436661  0.14480444    -0.25600
C1176       C  0.29433334  0.98312817  0.14988485     0.06600
C1177       C  0.30365814  0.00974899  0.14406371    -0.30500
O1178       O  0.24649208  0.06114027  0.10672333    -0.22300
C1179       C  0.22071720  0.05189330  0.10159091    -0.02300
C1180       C  0.21090365  0.02612796  0.10803800    -0.16700
H1181       H  0.21885464  0.97847888  0.12780351     0.21300
H1182       H  0.29554135  0.05792828  0.12434666     0.19600
H1183       H  0.32394502  0.02146768  0.14616735     0.19600
H1184       H  0.19094874  0.01393606  0.10580921     0.15500
C1185       C  0.19014850  0.03794745  0.00675300     0.30900
C1186       C  0.18902987  0.03971510  0.99172423    -0.35400
C1187       C  0.18772484  0.01281755  0.98439909     0.16900
C1188       C  0.18758848  0.98598869  0.99136135     0.22700
C1189       C  0.18890939  0.98420659  0.00639397    -0.33600
C1190       C  0.19017263  0.01112231  0.01372191     0.16800
O1191       O  0.18955835  0.06035037  0.01573470    -0.25600
C1192       C  0.18929720  0.04771196  0.02862236     0.06600
C1193       C  0.18976814  0.01713226  0.02803548    -0.30500
O1194       O  0.18458901  0.96370460  0.98242052    -0.22300
C1195       C  0.18279600  0.97645702  0.96957724    -0.02300
C1196       C  0.18471782  0.00695548  0.97014590    -0.16700
H1197       H  0.18834654  0.06060810  0.98615271     0.21300
H1198       H  0.18815456  0.96335067  0.01199299     0.19600
H1199       H  0.18859273  0.00164692  0.03685215     0.19600
H1200       H  0.18303617  0.02253870  0.96138521     0.15500
C1201       C  0.77831015  0.01852765  0.11503081     0.30900
C1202       C  0.77870153  0.99406949  0.12426224    -0.35400
C1203       C  0.75407706  0.99076685  0.13322495     0.16900
C1204       C  0.73071104  0.01026837  0.13320424     0.22700
C1205       C  0.73023989  0.03466100  0.12389670    -0.33600
C1206       C  0.75482234  0.03788254  0.11486476     0.16800
O1207       O  0.79914393  0.02591549  0.10583728    -0.25600
C1208       C  0.78889723  0.05032398  0.09965459     0.06600
C1209       C  0.76133979  0.05874418  0.10480681    -0.30500
O1210       O  0.71003446  0.00292127  0.14252302    -0.22300
C1211       C  0.72020480  0.97824042  0.14849939    -0.02300
C1212       C  0.74751685  0.96968188  0.14312463    -0.16700
H1213       H  0.79693240  0.97867578  0.12443934     0.21300
H1214       H  0.71199725  0.05003619  0.12370670     0.19600
H1215       H  0.74817860  0.07758180  0.10166765     0.19600
H1216       H  0.76059806  0.95066825  0.14609010     0.15500
C1217       C  0.81142100  0.00856592  0.98350215     0.30900
C1218       C  0.81428478  0.03712375  0.98909643    -0.35400
C1219       C  0.81209192  0.03966242  0.00408445     0.16900
C1220       C  0.80738620  0.01574075  0.01292340     0.22700
C1221       C  0.80394164  0.98733219  0.00731291    -0.33600
C1222       C  0.80614533  0.98479860  0.99235798     0.16800
O1223       O  0.81505004  0.00074253  0.96997224    -0.32000
C1224       C  0.81179667  0.97163122  0.97018076     0.06600
C1225       C  0.80603087  0.96054103  0.98379894    -0.30500
O1226       O  0.80881174  0.02259640  0.02664916    -0.22300
C1227       C  0.81435541  0.05131399  0.02664960    -0.02300
C1228       C  0.81637756  0.06321701  0.01290973    -0.16700
H1229       H  0.81906575  0.05583140  0.98230765     0.21300
H1230       H  0.80094955  0.96836078  0.01417637     0.19600
H1231       H  0.80355225  0.93779234  0.98700735     0.19600
H1232       H  0.82197433  0.08551117  0.00989809     0.15500
C1233       C  0.97826230  0.09092890  0.07468827     0.30900
C1234       C  0.00364729  0.08798114  0.08326106    -0.35400
C1235       C  0.03071662  0.09195925  0.07622422     0.16900
C1236       C  0.03262303  0.09830901  0.06175640     0.22700
C1237       C  0.00731066  0.10136721  0.05322399    -0.33600
C1238       C  0.98031761  0.09744769  0.06024653     0.16800
O1239       O  0.95066044  0.08816355  0.07897806    -0.25600
C1240       C  0.93492700  0.09295008  0.06710501     0.06600
C1241       C  0.95223293  0.09890901  0.05515241    -0.30500
O1242       O  0.06006593  0.10079380  0.05732376    -0.22300
C1243       C  0.07603254  0.09606989  0.06909271    -0.02300
C1244       C  0.05899185  0.09052309  0.08120722    -0.16700
H1245       H  0.00238603  0.08291208  0.09459837     0.21300
H1246       H  0.00858299  0.10638624  0.04187914     0.19600
H1247       H  0.94510705  0.10375485  0.04430249     0.19600
H1248       H  0.06638334  0.08585773  0.09203126     0.15500
C1249       C  0.24653180  0.54264429  0.88331125     0.30900
C1250       C  0.27205253  0.54235967  0.87480190    -0.35400
C1251       C  0.27544400  0.51797054  0.86573047     0.16900
C1252       C  0.25518155  0.49539396  0.86515051     0.22700
C1253       C  0.22963706  0.49573476  0.87359202    -0.33600
C1254       C  0.22619465  0.52015274  0.88260085     0.16800
O1255       O  0.23914238  0.56301428  0.89272702    -0.25600
C1256       C  0.21371578  0.55345643  0.89806562     0.06600
C1257       C  0.20454366  0.52693614  0.89213696    -0.30500
O1258       O  0.26286776  0.47456092  0.85608806    -0.22300
C1259       C  0.28829509  0.48393696  0.85071735    -0.02300
C1260       C  0.29725996  0.51085644  0.85628993    -0.16700
H1261       H  0.28817278  0.55983169  0.87527574     0.21300
H1262       H  0.21365472  0.47812502  0.87321029     0.19600
H1263       H  0.18503240  0.51430699  0.89466432     0.19600
H1264       H  0.31700229  0.52317821  0.85383005     0.15500
C1265       C  0.19073776  0.73633484  0.93308270     0.30900
C1266       C  0.20006659  0.76195566  0.94019149    -0.35400
C1267       C  0.19177555  0.78874548  0.93379118     0.16900
C1268       C  0.17545429  0.79013900  0.92128077     0.22700
C1269       C  0.16623730  0.76460529  0.91417706    -0.33600
C1270       C  0.17444260  0.73790963  0.92057476     0.16800
O1271       O  0.19485791  0.70896189  0.93743780    -0.25600
C1272       C  0.18099664  0.69289993  0.92757385     0.06600
C1273       C  0.16788196  0.70975970  0.91684773    -0.30500
O1274       O  0.16860140  0.81729272  0.91761040    -0.22300
C1275       C  0.18070529  0.83362733  0.92785887    -0.02300
C1276       C  0.19556349  0.81710778  0.93820607    -0.16700
H1277       H  0.21229078  0.76106580  0.95017015     0.21300
H1278       H  0.15292976  0.76550550  0.90453457     0.19600
H1279       H  0.15471432  0.70236346  0.90785394     0.19600
H1280       H  0.20634269  0.82478628  0.94787353     0.15500
C1281       C  0.75546800  0.51370399  0.88776336     0.30900
C1282       C  0.73627607  0.49026282  0.88498287    -0.35400
C1283       C  0.72702667  0.48712733  0.87070616     0.16900
C1284       C  0.73581188  0.50585229  0.85985620     0.22700
C1285       C  0.75523668  0.52922415  0.86261520    -0.33600
C1286       C  0.76470493  0.53222977  0.87691771     0.16800
O1287       O  0.76663410  0.52076012  0.90038216    -0.25600
C1288       C  0.78344420  0.54401095  0.89760568     0.06600
C1289       C  0.78322132  0.55205637  0.88317248    -0.30500
O1290       O  0.72443298  0.49861392  0.84727711    -0.22300
C1291       C  0.70832587  0.47487768  0.85016846    -0.02300
C1292       C  0.70919324  0.46674224  0.86454329    -0.16700
H1293       H  0.72909787  0.47543520  0.89337066     0.21300
H1294       H  0.76254097  0.54394357  0.85420713     0.19600
H1295       H  0.79473312  0.57009943  0.87809098     0.19600
H1296       H  0.69843927  0.44828248  0.86966576     0.15500
C1297       C  0.79911993  0.72553129  0.93737395     0.30900
C1298       C  0.79375212  0.75071865  0.94579528    -0.35400
C1299       C  0.79711900  0.77803123  0.93883204     0.16900
C1300       C  0.80508596  0.78023010  0.92457477     0.22700
C1301       C  0.81007954  0.75518248  0.91616817    -0.33600
C1302       C  0.80686092  0.72804862  0.92310592     0.16800
O1303       O  0.79959609  0.69788988  0.94186354    -0.25600
C1304       C  0.80768329  0.68266387  0.93027811     0.06600
C1305       C  0.81237058  0.70033847  0.91831950    -0.30500
O1306       O  0.80930805  0.80761204  0.92045242    -0.22300
C1307       C  0.80392916  0.82343872  0.93215211    -0.02300
C1308       C  0.79605519  0.80624449  0.94394669    -0.16700
H1309       H  0.78844259  0.74915795  0.95709492     0.21300
H1310       H  0.81713758  0.75677418  0.90510117     0.19600
H1311       H  0.82015488  0.69382757  0.90780999     0.19600
H1312       H  0.79182515  0.81335835  0.95483869     0.15500
C1313       C  0.02744297  0.58747792  0.92528870     0.30900
C1314       C  0.00249984  0.57784731  0.91770002    -0.35400
C1315       C  0.97512044  0.58476927  0.92382818     0.16900
C1316       C  0.97250741  0.60022614  0.93651440     0.22700
C1317       C  0.99742590  0.60972329  0.94413553    -0.33600
C1318       C  0.02477829  0.60268310  0.93804474     0.16800
O1319       O  0.05517137  0.58351201  0.92150468    -0.25600
C1320       C  0.07043939  0.59620671  0.93200919     0.06600
C1321       C  0.05270374  0.60847391  0.94260631    -0.30500
O1322       O  0.94483164  0.60441153  0.94027213    -0.22300
C1323       C  0.92947596  0.59136972  0.92990826    -0.02300
C1324       C  0.94712763  0.57872776  0.91937543    -0.16700
H1325       H  0.00432160  0.56580036  0.90772330     0.21300
H1326       H  0.99560301  0.62174427  0.95411968     0.19600
H1327       H  0.05943343  0.62006984  0.95220875     0.19600
H1328       H  0.94031597  0.56687929  0.90986081     0.15500
C1329       C  0.26468854  0.53218622  0.13419733     0.30900
C1330       C  0.24125087  0.53298591  0.12439938    -0.35400
C1331       C  0.23707826  0.50752811  0.11621828     0.16900
C1332       C  0.25482187  0.48294282  0.11749326     0.22700
C1333       C  0.27826037  0.48207768  0.12739030    -0.33600
C1334       C  0.28235561  0.50757987  0.13566005     0.16800
O1335       O  0.27263828  0.55377222  0.14275148    -0.25600
C1336       C  0.29565587  0.54294604  0.14985759     0.06600
C1337       C  0.30271946  0.51421327  0.14596479    -0.30500
O1338       O  0.24694380  0.46171018  0.10861915    -0.22300
C1339       C  0.22376218  0.47287891  0.10168574    -0.02300
C1340       C  0.21665577  0.50128922  0.10598221    -0.16700
H1341       H  0.22728217  0.55217536  0.12321489     0.21300
H1342       H  0.29231255  0.46294719  0.12853367     0.19600
H1343       H  0.32041627  0.50046898  0.14999560     0.19600
H1344       H  0.19907126  0.51532773  0.10206859     0.15500
C1345       C  0.20028202  0.28837825  0.06608159     0.30900
C1346       C  0.21055808  0.26288686  0.05912399    -0.35400
C1347       C  0.20173149  0.23592429  0.06513145     0.16900
C1348       C  0.18404459  0.23427230  0.07715066     0.22700
C1349       C  0.17404352  0.25964789  0.08416051    -0.33600
C1350       C  0.18279794  0.28649177  0.07815786     0.16800
O1351       O  0.20448597  0.31588254  0.06193811    -0.25600
C1352       C  0.18956588  0.33170387  0.07153899     0.06600
C1353       C  0.17569424  0.31453891  0.08186708    -0.30500
O1354       O  0.17687413  0.20705531  0.08045606    -0.22300
C1355       C  0.19017967  0.19089611  0.07049121    -0.02300
C1356       C  0.20612999  0.20761935  0.06068118    -0.16700
H1357       H  0.22382737  0.26399700  0.04949341     0.21300
H1358       H  0.15972612  0.25853269  0.09342706     0.19600
H1359       H  0.16162364  0.32168428  0.09057241     0.19600
H1360       H  0.21806876  0.20011698  0.05131669     0.15500
C1361       C  0.19935322  0.51077489  0.01531652     0.30900
C1362       C  0.19889257  0.53925636  0.00938220    -0.35400
C1363       C  0.19690583  0.54089721  0.99433401     0.16900
C1364       C  0.19559845  0.51619397  0.98575700     0.22700
C1365       C  0.19643675  0.48779998  0.99167022    -0.33600
C1366       C  0.19828926  0.48616021  0.00667515     0.16800
O1367       O  0.19849236  0.50407147  0.02911458    -0.25600
C1368       C  0.19691399  0.47479753  0.02928299     0.06600
C1369       C  0.19689823  0.46248924  0.01562777    -0.30500
O1370       O  0.19179821  0.52265282  0.97207319    -0.22300
C1371       C  0.19076509  0.55190139  0.97179482    -0.02300
C1372       C  0.19391558  0.56450298  0.98534019    -0.16700
H1373       H  0.19893166  0.55873475  0.01604943     0.21300
H1374       H  0.19463509  0.46833324  0.98505602     0.19600
H1375       H  0.19443466  0.43957808  0.01272449     0.19600
H1376       H  0.19286671  0.58755650  0.98819196     0.15500
C1377       C  0.75396649  0.52951337  0.13737014     0.30900
C1378       C  0.77987469  0.52847633  0.12921058    -0.35400
C1379       C  0.78262666  0.50450340  0.11986618     0.16900
C1380       C  0.76135821  0.48299250  0.11859020     0.22700
C1381       C  0.73558191  0.48380613  0.12691202    -0.33600
C1382       C  0.73286206  0.50778669  0.13630544     0.16800
O1383       O  0.74639299  0.55056272  0.14636277    -0.25600
C1384       C  0.72019307  0.54213281  0.15121363     0.06600
C1385       C  0.71071339  0.51558789  0.14541433    -0.30500
O1386       O  0.76813310  0.46312153  0.10880501    -0.22300
C1387       C  0.79411406  0.47203191  0.10382338    -0.02300
C1388       C  0.80423540  0.49757423  0.11034823    -0.16700
H1389       H  0.79650685  0.54543744  0.12992655     0.21300
H1390       H  0.71866532  0.46717612  0.12597651     0.19600
H1391       H  0.69020345  0.50415937  0.14736218     0.19600
H1392       H  0.82436816  0.50952219  0.10821159     0.15500
C1393       C  0.83801525  0.23396973  0.07685351     0.30900
C1394       C  0.85172942  0.25878910  0.08275221    -0.35400
C1395       C  0.84009328  0.28607862  0.07858503     0.16900
C1396       C  0.81653806  0.28884550  0.06926741     0.22700
C1397       C  0.80272794  0.26396417  0.06340438    -0.33600
C1398       C  0.81445354  0.23660484  0.06753171     0.16800
O1399       O  0.84596979  0.20640498  0.07894145    -0.25600
C1400       C  0.82729648  0.19109156  0.07086791     0.06600
C1401       C  0.80719584  0.20869891  0.06348496    -0.30500
O1402       O  0.81023773  0.31657547  0.06631523    -0.22300
C1403       C  0.82999320  0.33167290  0.07387390    -0.02300
C1404       C  0.84906214  0.31385063  0.08173569    -0.16700
H1405       H  0.87053321  0.25695796  0.08986995     0.21300
H1406       H  0.78454589  0.26582478  0.05591458     0.19600
H1407       H  0.79014831  0.20194957  0.05604760     0.19600
H1408       H  0.86750536  0.32041334  0.08838154     0.15500
C1409       C  0.80814629  0.49869233  0.01396463     0.30900
C1410       C  0.80086579  0.52544477  0.00720781    -0.35400
C1411       C  0.80807158  0.52759824  0.99256817     0.16900
C1412       C  0.82136818  0.50492630  0.98513288     0.22700
C1413       C  0.82796961  0.47803338  0.99178536    -0.33600
C1414       C  0.82086973  0.47591422  0.00637338     0.16800
O1415       O  0.80649966  0.49299184  0.02785333    -0.25600
C1416       C  0.81814052  0.46616618  0.02909037     0.06600
C1417       C  0.82712129  0.45436856  0.01605372    -0.30500
O1418       O  0.82803206  0.51220191  0.97183666    -0.22300
C1419       C  0.81872623  0.53985234  0.97062454    -0.02300
C1420       C  0.80600717  0.55062712  0.98317620    -0.16700
H1421       H  0.79147927  0.54371078  0.01308615     0.21300
H1422       H  0.83901555  0.46041457  0.98612243     0.19600
H1423       H  0.83858705  0.43382849  0.01415694     0.19600
H1424       H  0.79741057  0.57246103  0.98519900     0.15500
C1425       C  0.03566776  0.43245749  0.07706113     0.30900
C1426       C  0.01046831  0.43336918  0.08579807    -0.35400
C1427       C  0.98326613  0.43393895  0.07857765     0.16900
C1428       C  0.98107130  0.43363441  0.06379134     0.22700
C1429       C  0.00621522  0.43269344  0.05507600    -0.33600
C1430       C  0.03334924  0.43207866  0.06228105     0.16800
O1431       O  0.06332164  0.43173479  0.08149222    -0.25600
C1432       C  0.07882968  0.43084640  0.06937907     0.06600
C1433       C  0.06134335  0.43093719  0.05710427    -0.30500
O1434       O  0.95353004  0.43369510  0.05927971    -0.22300
C1435       C  0.93779456  0.43408747  0.07130795    -0.02300
C1436       C  0.95509084  0.43426594  0.08367186    -0.16700
H1437       H  0.01196427  0.43347766  0.09739520     0.21300
H1438       H  0.00471181  0.43227013  0.04347726     0.19600
H1439       H  0.06829021  0.43030042  0.04599408     0.19600
H1440       H  0.94793589  0.43408649  0.09475029     0.15500
loop_ 
_geom_bond_atom_site_label_1 
_geom_bond_atom_site_label_2 
_geom_bond_distance 
_geom_bond_site_symmetry_2 
_ccdc_geom_bond_type 
O1            C4   1.264       .  A
O1           Cd6   2.484       .  S
C2           O11   1.263       .  A
C2            O7   1.265       .  A
C2         C1403   1.468       .  S
O3            C9   1.263       .  A
O3           Cd6   2.462       .  S
C4           O12   1.264       .  A
C4         C1416   1.470       .  S
C5           O10   1.265       .  A
C5            O8   1.265       .  A
C5         C1387   1.468       .  S
Cd6          O13   2.487       .  S
Cd6          O12   2.462       .  S
Cd6          O11   2.453       .  S
Cd6           O7   2.487       .  S
Cd6          O10   2.457       .  S
Cd6           O8   2.476       .  S
C9           O13   1.265       .  A
C9         C1435   1.469       .  S
O14          C17   1.267       .  A
O14         Cd19   2.500       .  S
C15          O24   1.263       .  A
C15          O20   1.266       .  A
C15        C1368   1.472       .  S
O16          C22   1.263       .  A
O16         Cd19   2.466       .  S
C17          O25   1.264       .  A
C17        C1352   1.473       .  S
C18          O23   1.265       .  A
C18          O21   1.266       .  A
C18        C1339   1.470       .  S
Cd19         O26   2.487       .  S
Cd19         O25   2.457       .  S
Cd19         O24   2.475       .  S
Cd19         O20   2.484       .  S
Cd19         O23   2.455       .  S
Cd19         O21   2.488       .  S
C22          O26   1.263       .  A
C22        C1432   1.469       .  S
O27          C30   1.267       .  A
O27         Cd32   2.487       .  S
C28          O37   1.263       .  A
C28          O33   1.264       .  A
C28        C1304   1.475       .  S
O29          C35   1.264       .  A
O29         Cd32   2.497       .  S
C30          O38   1.266       .  A
C30        C1419   1.472       .  S
C31          O36   1.263       .  A
C31          O34   1.264       .  A
C31        C1288   1.472       .  S
Cd32         O39   2.461       .  S
Cd32         O38   2.460       .  S
Cd32         O37   2.469       .  S
Cd32         O33   2.506       .  S
Cd32         O36   2.488       .  S
Cd32         O34   2.491       .  S
C35          O39   1.261       .  A
C35        C1323   1.468       .  S
O40          C43   1.265       .  A
O40         Cd45   2.505       .  S
C41          O50   1.265       .  A
C41          O46   1.266       .  A
C41        C1272   1.470       .  S
O42          C48   1.264       .  A
O42         Cd45   2.464       .  S
C43          O51   1.262       .  A
C43        C1371   1.474       .  S
C44          O49   1.263       .  A
C44          O47   1.264       .  A
C44        C1320   1.469       .  S
Cd45         O52   2.482       .  S
Cd45         O51   2.471       .  S
Cd45         O50   2.458       .  S
Cd45         O46   2.484       .  S
Cd45         O49   2.476       .  S
Cd45         O47   2.473       .  S
C48          O52   1.266       .  A
C48        C1256   1.469       .  S
O53          C56   1.267       .  A
O53         Cd58   2.495       .  S
C54          O63   1.265       .  A
C54          O59   1.262       .  A
C54        C1227   1.470       .  S
O55          C61   1.264       .  A
O55         Cd58   2.467       .  S
C56          O64   1.263       .  A
C56        C1400   1.469       .  S
C57          O62   1.267       .  A
C57          O60   1.265       .  A
C57        C1208   1.475       .  S
Cd58         O65   2.493       .  S
Cd58         O64   2.450       .  S
Cd58         O63   2.495       .  S
Cd58         O59   2.463       .  S
Cd58         O62   2.491       .  S
Cd58         O60   2.474       .  S
C61          O65   1.265       .  A
C61        C1240   1.472       .  S
O66          C69   1.265       .  A
O66         Cd71   2.478       .  S
C67          O76   1.263       .  A
C67          O72   1.267       .  A
C67        C1355   1.469       .  S
O68          C74   1.263       .  A
O68         Cd71   2.461       .  S
C69          O77   1.264       .  A
C69        C1192   1.468       .  S
C70          O75   1.264       .  A
C70          O73   1.265       .  A
C70        C1179   1.469       .  S
Cd71         O78   2.485       .  S
Cd71         O77   2.463       .  S
Cd71         O76   2.443       .  S
Cd71         O72   2.495       .  S
Cd71         O75   2.457       .  S
Cd71         O73   2.482       .  S
C74          O78   1.265       .  A
C74        C1243   1.468       .  S
O79          C82   1.265       .  A
O79         Cd84   2.515       .  S
C80          O89   1.265       .  A
C80          O85   1.268       .  A
C80        C1224   1.470       .  S
O81          C87   1.264       .  A
O81         Cd84   2.503       .  S
C82          O90   1.262       .  A
C82        C1307   1.474       .  S
C83          O88   1.265       .  A
C83          O86   1.263       .  A
C83        C1144   1.468       .  S
Cd84         O91   2.470       .  S
Cd84         O90   2.460       .  S
Cd84         O89   2.466       .  S
Cd84         O85   2.470       .  S
Cd84         O88   2.482       .  S
Cd84         O86   2.468       .  S
C87          O91   1.262       .  A
C87        C1163   1.473       .  S
O92          C95   1.265       .  A
O92         Cd97   2.479       .  S
C93         O102   1.263       .  A
C93          O98   1.263       .  A
C93        C1195   1.468       .  S
O94         C100   1.266       .  A
O94         Cd97   2.494       .  S
C95         O103   1.265       .  A
C95        C1275   1.468       .  S
C96         O101   1.264       .  A
C96          O99   1.263       .  A
C96        C1160   1.471       .  S
Cd97        O104   2.463       .  S
Cd97        O103   2.454       .  S
Cd97        O102   2.474       .  S
Cd97         O98   2.478       .  S
Cd97        O101   2.488       .  S
Cd97         O99   2.479       .  S
C100        O104   1.265       .  A
C100       C1128   1.473       .  S
O105        C108   1.266       .  A
O105       Cd110   2.493       .  S
C106        O115   1.262       .  A
C106        O111   1.265       .  A
C106       C1096   1.466       .  S
O107        C113   1.264       .  A
O107       Cd110   2.462       .  S
C108        O116   1.266       .  A
C108       C1083   1.473       .  S
C109        O114   1.266       .  A
C109        O112   1.263       .  A
C109       C1115   1.474       .  S
Cd110       O117   2.493       .  S
Cd110       O116   2.461       .  S
Cd110       O115   2.456       .  S
Cd110       O111   2.476       .  S
Cd110       O114   2.507       .  S
Cd110       O112   2.461       .  S
C113        O117   1.266       .  A
C113       C1176   1.471       .  S
O118        C121   1.266       .  A
O118       Cd123   2.489       .  S
C119        O128   1.263       .  A
C119        O124   1.266       .  A
C119       C1064   1.467       .  S
O120        C126   1.265       .  A
O120       Cd123   2.498       .  S
C121        O129   1.263       .  A
C121       C1048   1.470       .  S
C122        O127   1.264       .  A
C122        O125   1.265       .  A
C122       C1336   1.466       .  S
Cd123       O130   2.461       .  S
Cd123       O129   2.458       .  S
Cd123       O128   2.463       .  S
Cd123       O124   2.467       .  S
Cd123       O127   2.443       .  S
Cd123       O125   2.483       .  S
C126        O130   1.263       .  A
C126       C1112   1.471       .  S
O131        C134   1.266       .  A
O131       Cd136   2.486       .  S
C132        O141   1.263       .  A
C132        O137   1.264       .  A
C132       C1099   1.469       .  S
O133        C139   1.264       .  A
O133       Cd136   2.452       .  S
C134        O142   1.265       .  A
C134       C1019   1.474       .  S
C135        O140   1.264       .  A
C135        O138   1.262       .  A
C135       C1035   1.470       .  S
Cd136       O143   2.496       .  S
Cd136       O142   2.477       .  S
Cd136       O141   2.477       .  S
Cd136       O137   2.478       .  S
Cd136       O140   2.495       .  S
Cd136       O138   2.464       .  S
C139        O143   1.266       .  A
C139       C1003   1.471       .  S
O144        C147   1.265       .  A
O144       Cd149   2.496       .  S
C145        O154   1.265       .  A
C145        O150   1.267       .  A
C145       C1067   1.466       .  S
O146        C152   1.264       .  A
O146       Cd149   2.491       .  S
C147        O155   1.263       .  A
C147        C984   1.470       .  S
C148        O153   1.264       .  A
C148        O151   1.265       .  A
C148        C968   1.469       .  S
Cd149       O156   2.469       .  S
Cd149       O155   2.457       .  S
Cd149       O154   2.450       .  S
Cd149       O150   2.464       .  S
Cd149       O153   2.461       .  S
Cd149       O151   2.484       .  S
C152        O156   1.263       .  A
C152       C1032   1.471       .  S
O157        C160   1.266       .  A
O157       Cd162   2.473       .  S
C158        O167   1.264       .  A
C158        O163   1.265       .  A
C158       C1051   1.471       .  S
O159        C165   1.266       .  A
O159       Cd162   2.488       .  S
C160        O168   1.263       .  A
C160        C936   1.468       .  S
C161        O166   1.265       .  A
C161        O164   1.266       .  A
C161       C1384   1.467       .  S
Cd162       O169   2.468       .  S
Cd162       O168   2.465       .  S
Cd162       O167   2.469       .  S
Cd162       O163   2.484       .  S
Cd162       O166   2.462       .  S
Cd162       O164   2.468       .  S
C165        O169   1.262       .  A
C165        C955   1.471       .  S
O170        C173   1.266       .  A
O170       Cd175   2.498       .  S
C171        O180   1.264       .  A
C171        O176   1.266       .  A
C171        C923   1.470       .  S
O172        C178   1.264       .  A
O172       Cd175   2.513       .  S
C173        O181   1.264       .  A
C173       C1080   1.470       .  S
C174        O179   1.265       .  A
C174        O177   1.265       .  A
C174       C1211   1.476       .  S
Cd175       O182   2.481       .  S
Cd175       O181   2.450       .  S
Cd175       O180   2.462       .  S
Cd175       O176   2.489       .  S
Cd175       O179   2.479       .  S
Cd175       O177   2.499       .  S
C178        O182   1.263       .  A
C178        C952   1.476       .  S
O183        C186   1.266       .  A
O183       Cd188   2.494       .  S
C184        O193   1.262       .  A
C184        O189   1.266       .  A
C184        C920   1.471       .  S
O185        C191   1.264       .  A
O185       Cd188   2.482       .  S
C186        O194   1.265       .  A
C186       C1016   1.475       .  S
C187        O192   1.264       .  A
C187        O190   1.266       .  A
C187        C891   1.473       .  S
Cd188       O195   2.480       .  S
Cd188       O194   2.475       .  S
Cd188       O193   2.473       .  S
Cd188       O189   2.491       .  S
Cd188       O192   2.455       .  S
Cd188       O190   2.504       .  S
C191        O195   1.263       .  A
C191        C904   1.471       .  S
O196        C199   1.265       .  A
O196       Cd201   2.491       .  S
C197        O206   1.266       .  A
C197        O202   1.267       .  A
C197        C939   1.470       .  S
O198        C204   1.265       .  A
O198       Cd201   2.482       .  S
C199        O207   1.263       .  A
C199        C987   1.471       .  S
C200        O205   1.266       .  A
C200        O203   1.262       .  A
C200        C907   1.474       .  S
Cd201       O208   2.491       .  S
Cd201       O207   2.472       .  S
Cd201       O206   2.463       .  S
Cd201       O202   2.469       .  S
Cd201       O205   2.518       .  S
Cd201       O203   2.451       .  S
C204        O208   1.263       .  A
C204        C875   1.472       .  S
O209        C212   1.264       .  A
O209       Cd214   2.489       .  S
C210        O219   1.264       .  A
C210        O215   1.267       .  A
C210        C827   1.473       .  S
O211        C217   1.266       .  A
O211       Cd214   2.513       .  S
C212        O220   1.264       .  A
C212        C840   1.473       .  S
C213        O218   1.266       .  A
C213        O216   1.266       .  A
C213        C811   1.475       .  S
Cd214       O221   2.466       .  S
Cd214       O220   2.481       .  S
Cd214       O219   2.466       .  S
Cd214       O215   2.491       .  S
Cd214       O218   2.486       .  S
Cd214       O216   2.481       .  S
C217        O221   1.262       .  A
C217        C856   1.475       .  S
O222        C225   1.267       .  A
O222       Cd227   2.493       .  S
C223        O232   1.263       .  A
C223        O228   1.266       .  A
C223        C792   1.471       .  S
O224        C230   1.266       .  A
O224       Cd227   2.496       .  S
C225        O233   1.263       .  A
C225        C779   1.471       .  S
C226        O231   1.265       .  A
C226        O229   1.266       .  A
C226        C763   1.469       .  S
Cd227       O234   2.465       .  S
Cd227       O233   2.464       .  S
Cd227       O232   2.469       .  S
Cd227       O228   2.484       .  S
Cd227       O231   2.457       .  S
Cd227       O229   2.480       .  S
C230        O234   1.262       .  A
C230        C859   1.472       .  S
O235        C238   1.267       .  A
O235       Cd240   2.481       .  S
C236        O245   1.262       .  A
C236        O241   1.266       .  A
C236        C731   1.467       .  S
O237        C243   1.265       .  A
O237       Cd240   2.481       .  S
C238        O246   1.266       .  A
C238        C843   1.473       .  S
C239        O244   1.264       .  A
C239        O242   1.263       .  A
C239        C872   1.466       .  S
Cd240       O247   2.440       .  S
Cd240       O246   2.466       .  S
Cd240       O245   2.440       .  S
Cd240       O241   2.491       .  S
Cd240       O244   2.474       .  S
Cd240       O242   2.459       .  S
C243        O247   1.263       .  A
C243        C744   1.464       .  S
O248        C251   1.266       .  A
O248       Cd253   2.499       .  S
C249        O258   1.265       .  A
C249        O254   1.268       .  A
C249        C795   1.469       .  S
O250        C256   1.265       .  A
O250       Cd253   2.490       .  S
C251        O259   1.263       .  A
C251        C712   1.472       .  S
C252        O257   1.264       .  A
C252        O255   1.263       .  A
C252        C971   1.471       .  S
Cd253       O260   2.442       .  S
Cd253       O259   2.462       .  S
Cd253       O258   2.445       .  S
Cd253       O254   2.484       .  S
Cd253       O257   2.488       .  S
Cd253       O255   2.477       .  S
C256        O260   1.263       .  A
C256        C747   1.467       .  S
O261        C264   1.266       .  A
O261       Cd266   2.489       .  S
C262        O271   1.262       .  A
C262        O267   1.266       .  A
C262        C680   1.469       .  S
O263        C269   1.264       .  A
O263       Cd266   2.466       .  S
C264        O272   1.265       .  A
C264        C824   1.474       .  S
C265        O270   1.263       .  A
C265        O268   1.265       .  A
C265        C664   1.465       .  S
Cd266       O273   2.460       .  S
Cd266       O272   2.470       .  S
Cd266       O271   2.454       .  S
Cd266       O267   2.494       .  S
Cd266       O270   2.454       .  S
Cd266       O268   2.474       .  S
C269        O273   1.265       .  A
C269        C699   1.466       .  S
O274        C277   1.268       .  A
O274       Cd279   2.482       .  S
C275        O284   1.263       .  A
C275        O280   1.266       .  A
C275        C776   1.472       .  S
O276        C282   1.267       .  A
O276       Cd279   2.479       .  S
C277        O285   1.265       .  A
C277        C651   1.467       .  S
C278        O283   1.265       .  A
C278        O281   1.263       .  A
C278        C632   1.468       .  S
Cd279       O286   2.455       .  S
Cd279       O285   2.433       .  S
Cd279       O284   2.456       .  S
Cd279       O280   2.498       .  S
Cd279       O283   2.479       .  S
Cd279       O281   2.466       .  S
C282        O286   1.264       .  A
C282        C696   1.468       .  S
O287        C290   1.264       .  A
O287       Cd292   2.512       .  S
C288        O297   1.265       .  A
C288        O293   1.266       .  A
C288        C683   1.470       .  S
O289        C295   1.263       .  A
O289       Cd292   2.501       .  S
C290        O298   1.263       .  A
C290        C728   1.473       .  S
C291        O296   1.264       .  A
C291        O294   1.267       .  A
C291        C888   1.472       .  S
Cd292       O299   2.452       .  S
Cd292       O298   2.463       .  S
Cd292       O297   2.482       .  S
Cd292       O293   2.463       .  S
Cd292       O296   2.471       .  S
Cd292       O294   2.484       .  S
C295        O299   1.262       .  A
C295        C616   1.470       .  S
O300        C303   1.265       .  A
O300       Cd305   2.463       .  S
C301        O310   1.263       .  A
C301        O306   1.265       .  A
C301        C715   1.472       .  S
O302        C308   1.263       .  A
O302       Cd305   2.486       .  S
C303        O311   1.265       .  A
C303        C648   1.468       .  S
C304        O309   1.265       .  A
C304        O307   1.265       .  A
C304       C1000   1.472       .  S
Cd305       O312   2.485       .  S
Cd305       O311   2.475       .  S
Cd305       O310   2.449       .  S
Cd305       O306   2.508       .  S
Cd305       O309   2.481       .  S
Cd305       O307   2.480       .  S
C308        O312   1.263       .  A
C308        C619   1.471       .  S
O313        C316   1.264       .  A
O313       Cd318   2.481       .  S
C314        O323   1.265       .  A
C314        O319   1.265       .  A
C314        C568   1.474       .  S
O315        C321   1.264       .  A
O315       Cd318   2.470       .  S
C316        O324   1.263       .  A
C316        C587   1.472       .  S
C317        O322   1.264       .  A
C317        O320   1.263       .  A
C317        C600   1.471       .  S
Cd318       O325   2.492       .  S
Cd318       O324   2.490       .  S
Cd318       O323   2.476       .  S
Cd318       O319   2.490       .  S
Cd318       O322   2.499       .  S
Cd318       O320   2.466       .  S
C321        O325   1.265       .  A
C321        C760   1.472       .  S
O326        C329   1.269       .  A
O326       Cd331   2.497       .  S
C327        O336   1.262       .  A
C327        O332   1.266       .  A
C327        C539   1.471       .  S
O328        C334   1.264       .  A
O328       Cd331   2.494       .  S
C329        O337   1.265       .  A
C329        C552   1.475       .  S
C330        O335   1.263       .  A
C330        O333   1.264       .  A
C330        C635   1.468       .  S
Cd331       O338   2.455       .  S
Cd331       O337   2.467       .  S
Cd331       O336   2.455       .  S
Cd331       O332   2.507       .  S
Cd331       O335   2.480       .  S
Cd331       O333   2.474       .  S
C334        O338   1.262       .  A
C334        C603   1.468       .  S
O339        C342   1.266       .  A
O339       Cd344   2.489       .  S
C340        O349   1.265       .  A
C340        O345   1.266       .  A
C340        C504   1.473       .  S
O341        C347   1.264       .  A
O341       Cd344   2.502       .  S
C342        O350   1.263       .  A
C342        C555   1.472       .  S
C343        O348   1.265       .  A
C343        O346   1.266       .  A
C343       C1131   1.471       .  S
Cd344       O351   2.458       .  S
Cd344       O350   2.470       .  S
Cd344       O349   2.470       .  S
Cd344       O345   2.484       .  S
Cd344       O348   2.472       .  S
Cd344       O346   2.479       .  S
C347        O351   1.263       .  A
C347        C523   1.471       .  S
O352        C355   1.265       .  A
O352       Cd357   2.474       .  S
C353        O362   1.264       .  A
C353        O358   1.265       .  A
C353        C584   1.469       .  S
O354        C360   1.264       .  A
O354       Cd357   2.501       .  S
C355        O363   1.264       .  A
C355        C488   1.467       .  S
C356        O361   1.263       .  A
C356        O359   1.266       .  A
C356       C1259   1.465       .  S
Cd357       O364   2.457       .  S
Cd357       O363   2.454       .  S
Cd357       O362   2.466       .  S
Cd357       O358   2.477       .  S
Cd357       O361   2.443       .  S
Cd357       O359   2.484       .  S
C360        O364   1.262       .  A
C360        C520   1.470       .  S
O365        C368   1.266       .  A
O365       Cd370   2.478       .  S
C366        O375   1.265       .  A
C366        O371   1.264       .  A
C366        C456   1.469       .  S
O367        C373   1.264       .  A
O367       Cd370   2.492       .  S
C368        O376   1.263       .  A
C368        C536   1.465       .  S
C369        O374   1.266       .  A
C369        O372   1.265       .  A
C369        C667   1.466       .  S
Cd370       O377   2.455       .  S
Cd370       O376   2.437       .  S
Cd370       O375   2.464       .  S
Cd370       O371   2.473       .  S
Cd370       O374   2.459       .  S
Cd370       O372   2.467       .  S
C373        O377   1.261       .  A
C373        C472   1.467       .  S
O378        C381   1.265       .  A
O378       Cd383   2.477       .  S
C379        O388   1.263       .  A
C379        O384   1.266       .  A
C379        C571   1.475       .  S
O380        C386   1.264       .  A
O380       Cd383   2.474       .  S
C381        O389   1.264       .  A
C381        C440   1.468       .  S
C382        O387   1.265       .  A
C382        O385   1.267       .  A
C382        C808   1.473       .  S
Cd383       O390   2.454       .  S
Cd383       O389   2.471       .  S
Cd383       O388   2.464       .  S
Cd383       O384   2.508       .  S
Cd383       O387   2.459       .  S
Cd383       O385   2.493       .  S
C386        O390   1.262       .  A
C386        C475   1.464       .  S
O391        C394   1.266       .  A
O391       Cd396   2.503       .  S
C392        O401   1.264       .  A
C392        O397   1.267       .  A
C392        C443   1.463       .  S
O393        C399   1.265       .  A
O393       Cd396   2.447       .  S
C394        O402   1.263       .  A
C394        C491   1.471       .  S
C395        O400   1.265       .  A
C395        O398   1.263       .  A
C395        C427   1.467       .  S
Cd396       O403   2.485       .  S
Cd396       O402   2.447       .  S
Cd396       O401   2.439       .  S
Cd396       O397   2.461       .  S
Cd396       O400   2.472       .  S
Cd396       O398   2.463       .  S
C399        O403   1.265       .  A
C399       C1291   1.469       .  S
O404        C407   1.267       .  A
O404       Cd409   2.503       .  S
C405        O414   1.265       .  A
C405        O410   1.267       .  A
C405        C459   1.473       .  S
O406        C412   1.266       .  A
O406       Cd409   2.493       .  S
C407        O415   1.263       .  A
C407        C507   1.474       .  S
C408        O413   1.266       .  A
C408        O411   1.264       .  A
C408       C1147   1.470       .  S
Cd409       O416   2.459       .  S
Cd409       O415   2.469       .  S
Cd409       O414   2.464       .  S
Cd409       O410   2.492       .  S
Cd409       O413   2.478       .  S
Cd409       O411   2.473       .  S
C412        O416   1.264       .  A
C412        C424   1.471       .  S
C417        C422   1.380       .  A
C417        C418   1.405       .  A
C417        O423   1.321       .  A
C418        C419   1.404       .  A
C418        H429   1.082       .  S
C419        C428   1.363       .  A
C419        C420   1.380       .  A
C420        C421   1.402       .  A
C420        O426   1.318       .  A
C421        C422   1.402       .  A
C421        H430   1.082       .  S
C422        C425   1.360       .  A
O423        C424   1.331       .  A
C424        C425   1.391       .  A
C425        H431   1.082       .  S
O426        C427   1.330       .  A
C427        C428   1.391       .  A
C428        H432   1.082       .  S
C433        C438   1.381       .  A
C433        C434   1.403       .  A
C433        O439   1.318       .  A
C434        C435   1.402       .  A
C434        H445   1.082       .  S
C435        C444   1.360       .  A
C435        C436   1.381       .  A
C436        C437   1.402       .  A
C436        O442   1.318       .  A
C437        C438   1.402       .  A
C437        H446   1.082       .  S
C438        C441   1.361       .  A
O439        C440   1.330       .  A
C440        C441   1.391       .  A
C441        H447   1.082       .  S
O442        C443   1.329       .  A
C443        C444   1.391       .  A
C444        H448   1.082       .  S
C449        C454   1.380       .  A
C449        C450   1.405       .  A
C449        O455   1.320       .  A
C450        C451   1.404       .  A
C450        H461   1.082       .  S
C451        C460   1.363       .  A
C451        C452   1.380       .  A
C452        C453   1.403       .  A
C452        O458   1.320       .  A
C453        C454   1.403       .  A
C453        H462   1.082       .  S
C454        C457   1.361       .  A
O455        C456   1.331       .  A
C456        C457   1.390       .  A
C457        H463   1.082       .  S
O458        C459   1.331       .  A
C459        C460   1.393       .  A
C460        H464   1.082       .  S
C465        C470   1.381       .  A
C465        C466   1.404       .  A
C465        O471   1.320       .  A
C466        C467   1.403       .  A
C466        H477   1.082       .  S
C467        C476   1.362       .  A
C467        C468   1.381       .  A
C468        C469   1.401       .  A
C468        O474   1.316       .  A
C469        C470   1.400       .  A
C469        H478   1.082       .  S
C470        C473   1.358       .  A
O471        C472   1.331       .  A
C472        C473   1.390       .  A
C473        H479   1.082       .  S
O474        C475   1.329       .  A
C475        C476   1.391       .  A
C476        H480   1.082       .  S
C481        C486   1.381       .  A
C481        C482   1.400       .  A
C481        O487   1.317       .  A
C482        C483   1.400       .  A
C482        H493   1.082       .  S
C483        C492   1.358       .  A
C483        C484   1.381       .  A
C484        C485   1.406       .  A
C484        O490   1.322       .  A
C485        C486   1.405       .  A
C485        H494   1.082       .  S
C486        C489   1.364       .  A
O487        C488   1.329       .  A
C488        C489   1.392       .  A
C489        H495   1.082       .  S
O490        C491   1.332       .  A
C491        C492   1.390       .  A
C492        H496   1.083       .  S
C497        C502   1.380       .  A
C497        C498   1.404       .  A
C497        O503   1.320       .  A
C498        C499   1.404       .  A
C498        H509   1.082       .  S
C499        C508   1.364       .  A
C499        C500   1.380       .  A
C500        C501   1.406       .  A
C500        O506   1.320       .  A
C501        C502   1.405       .  A
C501        H510   1.082       .  S
C502        C505   1.364       .  A
O503        C504   1.331       .  A
C504        C505   1.393       .  A
C505        H511   1.082       .  S
O506        C507   1.333       .  A
C507        C508   1.391       .  A
C508        H512   1.082       .  S
C513        C518   1.381       .  A
C513        C514   1.400       .  A
C513        O519   1.316       .  A
C514        C515   1.399       .  A
C514        H525   1.082       .  S
C515        C524   1.358       .  A
C515        C516   1.380       .  A
C516        C517   1.408       .  A
C516        O522   1.323       .  A
C517        C518   1.407       .  A
C517        H526   1.082       .  S
C518        C521   1.367       .  A
O519        C520   1.329       .  A
C520        C521   1.394       .  A
C521        H527   1.083       .  S
O522        C523   1.333       .  A
C523        C524   1.389       .  A
C524        H528   1.083       .  S
C529        C534   1.381       .  A
C529        C530   1.401       .  A
C529        O535   1.316       .  A
C530        C531   1.400   1_655  A
C530        H541   1.082       .  S
C531        C540   1.359       .  A
C531        C532   1.381       .  A
C532        C533   1.405   1_455  A
C532        O538   1.321       .  A
C533        C534   1.404       .  A
C533        H542   1.082   1_655  S
C534        C537   1.364       .  A
O535        C536   1.329       .  A
C536        C537   1.391       .  A
C537        H543   1.083       .  S
O538        C539   1.331       .  A
C539        C540   1.391       .  A
C540        H544   1.083       .  S
C545        C550   1.380       .  A
C545        C546   1.405       .  A
C545        O551   1.320       .  A
C546        C547   1.404       .  A
C546        H557   1.082       .  S
C547        C556   1.364       .  A
C547        C548   1.380       .  A
C548        C549   1.405       .  A
C548        O554   1.320       .  A
C549        C550   1.404       .  A
C549        H558   1.082       .  S
C550        C553   1.365       .  A
O551        C552   1.332       .  A
C552        C553   1.392       .  A
C553        H559   1.082       .  S
O554        C555   1.332       .  A
C555        C556   1.391       .  A
C556        H560   1.082       .  S
C561        C566   1.380       .  A
C561        C562   1.403       .  A
C561        O567   1.319       .  A
C562        C563   1.402   1_455  A
C562        H573   1.082       .  S
C563        C572   1.361       .  A
C563        C564   1.380       .  A
C564        C565   1.407   1_655  A
C564        O570   1.323       .  A
C565        C566   1.407       .  A
C565        H574   1.082       .  S
C566        C569   1.366       .  A
O567        C568   1.330       .  A
C568        C569   1.394       .  A
C569        H575   1.082       .  S
O570        C571   1.333       .  A
C571        C572   1.391       .  A
C572        H576   1.082       .  S
C577        C582   1.380       .  A
C577        C578   1.403       .  A
C577        O583   1.319       .  A
C578        C579   1.403       .  A
C578        H589   1.082       .  S
C579        C588   1.362       .  A
C579        C580   1.380       .  A
C580        C581   1.405       .  A
C580        O586   1.320       .  A
C581        C582   1.404       .  A
C581        H590   1.082       .  S
C582        C585   1.363       .  A
O583        C584   1.330       .  A
C584        C585   1.392       .  A
C585        H591   1.082       .  S
O586        C587   1.332       .  A
C587        C588   1.391       .  A
C588        H592   1.082       .  S
C593        C598   1.380       .  A
C593        C594   1.407       .  A
C593        O599   1.322       .  A
C594        C595   1.406       .  A
C594        H605   1.082       .  S
C595        C604   1.366       .  A
C595        C596   1.381       .  A
C596        C597   1.400       .  A
C596        O602   1.316       .  A
C597        C598   1.400       .  A
C597        H606   1.082       .  S
C598        C601   1.359       .  A
O599        C600   1.333       .  A
C600        C601   1.389       .  A
C601        H607   1.082       .  S
O602        C603   1.329       .  A
C603        C604   1.393       .  A
C604        H608   1.082       .  S
C609        C614   1.380       .  A
C609        C610   1.406       .  A
C609        O615   1.323       .  A
C610        C611   1.407       .  A
C610        H621   1.082       .  S
C611        C620   1.364       .  A
C611        C612   1.381       .  A
C612        C613   1.401       .  A
C612        O618   1.318       .  A
C613        C614   1.400       .  A
C613        H622   1.082       .  S
C614        C617   1.357       .  A
O615        C616   1.333       .  A
C616        C617   1.389       .  A
C617        H623   1.083       .  S
O618        C619   1.330       .  A
C619        C620   1.393       .  A
C620        H624   1.082       .  S
C625        C630   1.380       .  A
C625        C626   1.405   1_565  A
C625        O631   1.319       .  A
C626        C627   1.404       .  A
C626        H637   1.082       .  S
C627        C636   1.364       .  A
C627        C628   1.381       .  A
C628        C629   1.402   1_545  A
C628        O634   1.318       .  A
C629        C630   1.401       .  A
C629        H638   1.082       .  S
C630        C633   1.362       .  A
O631        C632   1.331       .  A
C632        C633   1.390       .  A
C633        H639   1.082       .  S
O634        C635   1.329       .  A
C635        C636   1.392       .  A
C636        H640   1.082       .  S
C641        C646   1.381       .  A
C641        C642   1.401       .  A
C641        O647   1.317       .  A
C642        C643   1.400       .  A
C642        H653   1.082       .  S
C643        C652   1.358       .  A
C643        C644   1.381   1_545  A
C644        C645   1.404       .  A
C644        O650   1.321       .  A
C645        C646   1.404   1_565  A
C645        H654   1.082       .  S
C646        C649   1.363       .  A
O647        C648   1.329       .  A
C648        C649   1.392       .  A
C649        H655   1.082       .  S
O650        C651   1.331       .  A
C651        C652   1.390   1_565  A
C652        H656   1.083       .  S
C657        C662   1.381       .  A
C657        C658   1.401   1_565  A
C657        O663   1.317       .  A
C658        C659   1.400       .  A
C658        H669   1.082       .  S
C659        C668   1.360       .  A
C659        C660   1.381       .  A
C660        C661   1.404   1_545  A
C660        O666   1.319       .  A
C661        C662   1.403       .  A
C661        H670   1.082       .  S
C662        C665   1.362       .  A
O663        C664   1.329       .  A
C664        C665   1.390       .  A
C665        H671   1.082       .  S
O666        C667   1.331       .  A
C667        C668   1.390       .  A
C668        H672   1.082       .  S
C673        C678   1.381   1_545  A
C673        C674   1.401       .  A
C673        O679   1.317       .  A
C674        C675   1.400       .  A
C674        H685   1.082       .  S
C675        C684   1.360       .  A
C675        C676   1.380       .  A
C676        C677   1.406   1_545  A
C676        O682   1.321       .  A
C677        C678   1.405       .  A
C677        H686   1.082       .  S
C678        C681   1.365       .  A
O679        C680   1.329   1_545  A
C680        C681   1.392       .  A
C681        H687   1.082       .  S
O682        C683   1.332       .  A
C683        C684   1.389       .  A
C684        H688   1.082       .  S
C689        C694   1.381       .  A
C689        C690   1.402       .  A
C689        O695   1.317       .  A
C690        C691   1.401       .  A
C690        H701   1.082       .  S
C691        C700   1.360       .  A
C691        C692   1.381       .  A
C692        C693   1.404       .  A
C692        O698   1.319       .  A
C693        C694   1.403       .  A
C693        H702   1.082       .  S
C694        C697   1.363       .  A
O695        C696   1.330       .  A
C696        C697   1.391       .  A
C697        H703   1.082       .  S
O698        C699   1.331       .  A
C699        C700   1.390       .  A
C700        H704   1.082       .  S
C705        C710   1.381       .  A
C705        C706   1.400       .  A
C705        O711   1.317       .  A
C706        C707   1.400       .  A
C706        H717   1.082       .  S
C707        C716   1.358       .  A
C707        C708   1.380       .  A
C708        C709   1.408       .  A
C708        O714   1.324       .  A
C709        C710   1.408       .  A
C709        H718   1.082       .  S
C710        C713   1.367       .  A
O711        C712   1.330       .  A
C712        C713   1.394       .  A
C713        H719   1.082       .  S
O714        C715   1.333       .  A
C715        C716   1.389       .  A
C716        H720   1.082       .  S
C721        C726   1.380       .  A
C721        C722   1.407       .  A
C721        O727   1.323       .  A
C722        C723   1.406       .  A
C722        H733   1.082       .  S
C723        C732   1.366       .  A
C723        C724   1.381       .  A
C724        C725   1.400       .  A
C724        O730   1.316       .  A
C725        C726   1.400       .  A
C725        H734   1.082       .  S
C726        C729   1.358       .  A
O727        C728   1.333       .  A
C728        C729   1.390       .  A
C729        H735   1.082       .  S
O730        C731   1.329       .  A
C731        C732   1.392       .  A
C732        H736   1.082       .  S
C737        C742   1.381       .  A
C737        C738   1.399       .  A
C737        O743   1.315       .  A
C738        C739   1.398       .  A
C738        H749   1.082       .  S
C739        C748   1.357       .  A
C739        C740   1.381       .  A
C740        C741   1.405       .  A
C740        O746   1.320       .  A
C741        C742   1.404       .  A
C741        H750   1.082       .  S
C742        C745   1.364       .  A
O743        C744   1.328       .  A
C744        C745   1.392       .  A
C745        H751   1.083       .  S
O746        C747   1.331       .  A
C747        C748   1.389       .  A
C748        H752   1.083       .  S
C753        C758   1.380       .  A
C753        C754   1.406       .  A
C753        O759   1.321       .  A
C754        C755   1.405       .  A
C754        H765   1.082       .  S
C755        C764   1.365       .  A
C755        C756   1.380       .  A
C756        C757   1.402       .  A
C756        O762   1.318       .  A
C757        C758   1.402       .  A
C757        H766   1.082       .  S
C758        C761   1.361       .  A
O759        C760   1.332       .  A
C760        C761   1.391       .  A
C761        H767   1.082       .  S
O762        C763   1.330       .  A
C763        C764   1.392       .  A
C764        H768   1.082       .  S
C769        C774   1.380       .  A
C769        C770   1.405       .  A
C769        O775   1.322       .  A
C770        C771   1.405       .  A
C770        H781   1.082       .  S
C771        C780   1.364       .  A
C771        C772   1.381       .  A
C772        C773   1.403       .  A
C772        O778   1.319       .  A
C773        C774   1.402       .  A
C773        H782   1.082       .  S
C774        C777   1.360       .  A
O775        C776   1.332       .  A
C776        C777   1.391       .  A
C777        H783   1.082       .  S
O778        C779   1.331       .  A
C779        C780   1.392       .  A
C780        H784   1.082       .  S
C785        C790   1.380       .  A
C785        C786   1.406       .  A
C785        O791   1.320       .  A
C786        C787   1.404       .  A
C786        H797   1.082       .  S
C787        C796   1.365       .  A
C787        C788   1.380       .  A
C788        C789   1.402       .  A
C788        O794   1.317       .  A
C789        C790   1.401       .  A
C789        H798   1.082       .  S
C790        C793   1.362       .  A
O791        C792   1.332       .  A
C792        C793   1.390       .  A
C793        H799   1.082       .  S
O794        C795   1.330       .  A
C795        C796   1.392       .  A
C796        H800   1.082       .  S
C801        C806   1.380       .  A
C801        C802   1.406       .  A
C801        O807   1.322       .  A
C802        C803   1.406       .  A
C802        H813   1.082       .  S
C803        C812   1.364       .  A
C803        C804   1.380       .  A
C804        C805   1.404       .  A
C804        O810   1.320       .  A
C805        C806   1.403       .  A
C805        H814   1.082       .  S
C806        C809   1.361       .  A
O807        C808   1.332       .  A
C808        C809   1.391       .  A
C809        H815   1.082       .  S
O810        C811   1.331       .  A
C811        C812   1.393       .  A
C812        H816   1.082       .  S
C817        C822   1.380       .  A
C817        C818   1.406       .  A
C817        O823   1.322       .  A
C818        C819   1.405       .  A
C818        H829   1.082       .  S
C819        C828   1.365       .  A
C819        C820   1.380       .  A
C820        C821   1.404       .  A
C820        O826   1.319       .  A
C821        C822   1.403       .  A
C821        H830   1.082       .  S
C822        C825   1.362       .  A
O823        C824   1.332       .  A
C824        C825   1.391       .  A
C825        H831   1.082       .  S
O826        C827   1.331       .  A
C827        C828   1.392       .  A
C828        H832   1.082       .  S
C833        C838   1.380       .  A
C833        C834   1.405       .  A
C833        O839   1.321       .  A
C834        C835   1.405       .  A
C834        H845   1.082       .  S
C835        C844   1.363       .  A
C835        C836   1.380       .  A
C836        C837   1.404       .  A
C836        O842   1.320       .  A
C837        C838   1.404       .  A
C837        H846   1.082       .  S
C838        C841   1.363       .  A
O839        C840   1.332       .  A
C840        C841   1.392       .  A
C841        H847   1.082       .  S
O842        C843   1.331       .  A
C843        C844   1.392       .  A
C844        H848   1.082       .  S
C849        C854   1.380       .  A
C849        C850   1.406       .  A
C849        O855   1.322       .  A
C850        C851   1.405       .  A
C850        H861   1.082       .  S
C851        C860   1.365       .  A
C851        C852   1.380       .  A
C852        C853   1.404       .  A
C852        O858   1.319       .  A
C853        C854   1.403       .  A
C853        H862   1.082       .  S
C854        C857   1.361       .  A
O855        C856   1.332       .  A
C856        C857   1.392       .  A
C857        H863   1.083       .  S
O858        C859   1.331       .  A
C859        C860   1.392       .  A
C860        H864   1.082       .  S
C865        C870   1.381       .  A
C865        C866   1.401       .  A
C865        O871   1.317       .  A
C866        C867   1.401       .  A
C866        H877   1.082       .  S
C867        C876   1.361       .  A
C867        C868   1.380       .  A
C868        C869   1.406       .  A
C868        O874   1.321       .  A
C869        C870   1.405       .  A
C869        H878   1.082       .  S
C870        C873   1.364       .  A
O871        C872   1.329       .  A
C872        C873   1.392       .  A
C873        H879   1.082       .  S
O874        C875   1.332       .  A
C875        C876   1.390       .  A
C876        H880   1.082       .  S
C881        C886   1.380       .  A
C881        C882   1.403   1_545  A
C881        O887   1.320       .  A
C882        C883   1.403       .  A
C882        H893   1.082       .  S
C883        C892   1.360       .  A
C883        C884   1.380   1_565  A
C884        C885   1.405       .  A
C884        O890   1.322   1_545  A
C885        C886   1.405       .  A
C885        H894   1.082       .  S
C886        C889   1.364       .  A
O887        C888   1.331       .  A
C888        C889   1.392       .  A
C889        H895   1.082       .  S
O890        C891   1.332       .  A
C891        C892   1.391       .  A
C892        H896   1.082       .  S
C897        C902   1.380       .  A
C897        C898   1.403       .  A
C897        O903   1.320       .  A
C898        C899   1.402       .  A
C898        H909   1.082       .  S
C899        C908   1.359       .  A
C899        C900   1.380       .  A
C900        C901   1.406       .  A
C900        O906   1.323       .  A
C901        C902   1.406       .  A
C901        H910   1.082       .  S
C902        C905   1.364       .  A
O903        C904   1.331       .  A
C904        C905   1.392       .  A
C905        H911   1.082       .  S
O906        C907   1.333       .  A
C907        C908   1.391       .  A
C908        H912   1.082       .  S
C913        C918   1.380       .  A
C913        C914   1.406       .  A
C913        O919   1.320       .  A
C914        C915   1.404       .  A
C914        H925   1.082       .  S
C915        C924   1.365       .  A
C915        C916   1.381       .  A
C916        C917   1.403       .  A
C916        O922   1.318       .  A
C917        C918   1.402       .  A
C917        H926   1.082       .  S
C918        C921   1.362       .  A
O919        C920   1.332       .  A
C920        C921   1.390       .  A
C921        H927   1.082       .  S
O922        C923   1.330       .  A
C923        C924   1.392       .  A
C924        H928   1.082       .  S
C929        C934   1.380       .  A
C929        C930   1.404       .  A
C929        O935   1.319       .  A
C930        C931   1.404       .  A
C930        H941   1.082       .  S
C931        C940   1.363       .  A
C931        C932   1.381       .  A
C932        C933   1.403       .  A
C932        O938   1.319       .  A
C933        C934   1.402       .  A
C933        H942   1.082       .  S
C934        C937   1.361       .  A
O935        C936   1.331       .  A
C936        C937   1.390       .  A
C937        H943   1.082       .  S
O938        C939   1.330       .  A
C939        C940   1.392       .  A
C940        H944   1.082       .  S
C945        C950   1.380       .  A
C945        C946   1.406       .  A
C945        O951   1.323       .  A
C946        C947   1.405       .  A
C946        H957   1.082       .  S
C947        C956   1.364       .  A
C947        C948   1.380       .  A
C948        C949   1.404       .  A
C948        O954   1.319       .  A
C949        C950   1.403       .  A
C949        H958   1.082       .  S
C950        C953   1.362       .  A
O951        C952   1.333       .  A
C952        C953   1.392       .  A
C953        H959   1.082       .  S
O954        C955   1.331       .  A
C955        C956   1.392       .  A
C956        H960   1.082       .  S
C961        C966   1.381       .  A
C961        C962   1.403       .  A
C961        O967   1.318       .  A
C962        C963   1.402       .  A
C962        H973   1.082       .  S
C963        C972   1.362       .  A
C963        C964   1.380       .  A
C964        C965   1.405       .  A
C964        O970   1.320       .  A
C965        C966   1.404       .  A
C965        H974   1.082       .  S
C966        C969   1.364       .  A
O967        C968   1.330       .  A
C968        C969   1.392       .  A
C969        H975   1.082       .  S
O970        C971   1.331       .  A
C971        C972   1.391       .  A
C972        H976   1.083       .  S
C977        C982   1.381       .  A
C977        C978   1.405       .  A
C977        O983   1.321       .  A
C978        C979   1.405   1_455  A
C978        H989   1.082       .  S
C979        C988   1.364       .  A
C979        C980   1.381       .  A
C980        C981   1.402   1_655  A
C980        O986   1.319       .  A
C981        C982   1.402       .  A
C981        H990   1.082       .  S
C982        C985   1.360       .  A
O983        C984   1.332       .  A
C984        C985   1.390       .  A
C985        H991   1.083       .  S
O986        C987   1.331       .  A
C987        C988   1.392       .  A
C988        H992   1.082       .  S
C993        C998   1.381       .  A
C993        C994   1.402   1_545  A
C993        O999   1.320       .  A
C994        C995   1.402       .  A
C994       H1005   1.082       .  S
C995       C1004   1.359       .  A
C995        C996   1.380   1_565  A
C996        C997   1.406       .  A
C996       O1002   1.322   1_545  A
C997        C998   1.406       .  A
C997       H1006   1.082       .  S
C998       C1001   1.364       .  A
O999       C1000   1.331       .  A
C1000      C1001   1.392       .  A
C1001      H1007   1.082       .  S
O1002      C1003   1.332       .  A
C1003      C1004   1.390       .  A
C1004      H1008   1.082       .  S
C1009      C1014   1.380       .  A
C1009      C1010   1.406   1_655  A
C1009      O1015   1.322       .  A
C1010      C1011   1.405       .  A
C1010      H1021   1.082       .  S
C1011      C1020   1.365       .  A
C1011      C1012   1.380       .  A
C1012      C1013   1.404       .  A
C1012      O1018   1.320       .  A
C1013      C1014   1.404   1_455  A
C1013      H1022   1.082       .  S
C1014      C1017   1.363       .  A
O1015      C1016   1.332       .  A
C1016      C1017   1.392       .  A
C1017      H1023   1.083       .  S
O1018      C1019   1.331       .  A
C1019      C1020   1.393       .  A
C1020      H1024   1.083       .  S
C1025      C1030   1.380       .  A
C1025      C1026   1.406       .  A
C1025      O1031   1.321       .  A
C1026      C1027   1.405       .  A
C1026      H1037   1.082       .  S
C1027      C1036   1.365       .  A
C1027      C1028   1.380       .  A
C1028      C1029   1.402       .  A
C1028      O1034   1.318       .  A
C1029      C1030   1.401       .  A
C1029      H1038   1.082       .  S
C1030      C1033   1.361       .  A
O1031      C1032   1.332       .  A
C1032      C1033   1.391       .  A
C1033      H1039   1.082       .  S
O1034      C1035   1.330       .  A
C1035      C1036   1.393       .  A
C1036      H1040   1.082       .  S
C1041      C1046   1.380       .  A
C1041      C1042   1.403       .  A
C1041      O1047   1.318       .  A
C1042      C1043   1.402       .  A
C1042      H1053   1.082       .  S
C1043      C1052   1.362       .  A
C1043      C1044   1.380       .  A
C1044      C1045   1.405       .  A
C1044      O1050   1.320       .  A
C1045      C1046   1.404       .  A
C1045      H1054   1.082       .  S
C1046      C1049   1.365       .  A
O1047      C1048   1.330       .  A
C1048      C1049   1.392       .  A
C1049      H1055   1.082       .  S
O1050      C1051   1.331       .  A
C1051      C1052   1.391       .  A
C1052      H1056   1.083       .  S
C1057      C1062   1.380       .  A
C1057      C1058   1.403       .  A
C1057      O1063   1.319       .  A
C1058      C1059   1.402       .  A
C1058      H1069   1.082       .  S
C1059      C1068   1.362       .  A
C1059      C1060   1.381       .  A
C1060      C1061   1.402       .  A
C1060      O1066   1.318       .  A
C1061      C1062   1.401       .  A
C1061      H1070   1.082       .  S
C1062      C1065   1.360       .  A
O1063      C1064   1.331       .  A
C1064      C1065   1.390       .  A
C1065      H1071   1.082       .  S
O1066      C1067   1.330       .  A
C1067      C1068   1.390       .  A
C1068      H1072   1.082       .  S
C1073      C1078   1.381       .  A
C1073      C1074   1.400       .  A
C1073      O1079   1.316       .  A
C1074      C1075   1.399       .  A
C1074      H1085   1.082       .  S
C1075      C1084   1.359       .  A
C1075      C1076   1.380       .  A
C1076      C1077   1.408       .  A
C1076      O1082   1.323       .  A
C1077      C1078   1.407       .  A
C1077      H1086   1.082       .  S
C1078      C1081   1.368       .  A
O1079      C1080   1.329       .  A
C1080      C1081   1.394       .  A
C1081      H1087   1.082       .  S
O1082      C1083   1.334       .  A
C1083      C1084   1.389       .  A
C1084      H1088   1.082       .  S
C1089      C1094   1.380       .  A
C1089      C1090   1.403       .  A
C1089      O1095   1.318       .  A
C1090      C1091   1.402       .  A
C1090      H1101   1.082       .  S
C1091      C1100   1.362       .  A
C1091      C1092   1.380       .  A
C1092      C1093   1.403       .  A
C1092      O1098   1.319       .  A
C1093      C1094   1.402       .  A
C1093      H1102   1.082       .  S
C1094      C1097   1.362       .  A
O1095      C1096   1.331       .  A
C1096      C1097   1.390       .  A
C1097      H1103   1.082       .  S
O1098      C1099   1.331       .  A
C1099      C1100   1.391       .  A
C1100      H1104   1.082       .  S
C1105      C1110   1.380       .  A
C1105      C1106   1.402       .  A
C1105      O1111   1.318       .  A
C1106      C1107   1.401       .  A
C1106      H1117   1.082       .  S
C1107      C1116   1.360       .  A
C1107      C1108   1.380       .  A
C1108      C1109   1.407       .  A
C1108      O1114   1.323       .  A
C1109      C1110   1.407       .  A
C1109      H1118   1.082       .  S
C1110      C1113   1.367       .  A
O1111      C1112   1.330       .  A
C1112      C1113   1.393       .  A
C1113      H1119   1.082       .  S
O1114      C1115   1.333       .  A
C1115      C1116   1.391       .  A
C1116      H1120   1.082       .  S
C1121      C1126   1.380   1_565  A
C1121      C1122   1.406       .  A
C1121      O1127   1.322       .  A
C1122      C1123   1.406   1_565  A
C1122      H1133   1.082       .  S
C1123      C1132   1.365       .  A
C1123      C1124   1.380       .  A
C1124      C1125   1.403       .  A
C1124      O1130   1.319       .  A
C1125      C1126   1.402       .  A
C1125      H1134   1.082       .  S
C1126      C1129   1.360   1_545  A
O1127      C1128   1.332       .  A
C1128      C1129   1.391       .  A
C1129      H1135   1.082   1_565  S
O1130      C1131   1.330       .  A
C1131      C1132   1.392       .  A
C1132      H1136   1.082       .  S
C1137      C1142   1.381       .  A
C1137      C1138   1.403   1_565  A
C1137      O1143   1.318       .  A
C1138      C1139   1.402       .  A
C1138      H1149   1.082       .  S
C1139      C1148   1.362       .  A
C1139      C1140   1.380       .  A
C1140      C1141   1.404   1_545  A
C1140      O1146   1.319       .  A
C1141      C1142   1.403       .  A
C1141      H1150   1.082       .  S
C1142      C1145   1.363       .  A
O1143      C1144   1.330       .  A
C1144      C1145   1.391       .  A
C1145      H1151   1.082       .  S
O1146      C1147   1.331       .  A
C1147      C1148   1.391       .  A
C1148      H1152   1.082       .  S
C1153      C1158   1.381       .  A
C1153      C1154   1.403   1_455  A
C1153      O1159   1.319       .  A
C1154      C1155   1.402       .  A
C1154      H1165   1.082       .  S
C1155      C1164   1.360       .  A
C1155      C1156   1.380       .  A
C1156      C1157   1.406       .  A
C1156      O1162   1.322       .  A
C1157      C1158   1.405   1_655  A
C1157      H1166   1.082       .  S
C1158      C1161   1.364       .  A
O1159      C1160   1.330       .  A
C1160      C1161   1.392       .  A
C1161      H1167   1.083       .  S
O1162      C1163   1.332       .  A
C1163      C1164   1.391       .  A
C1164      H1168   1.082       .  S
C1169      C1174   1.380   1_565  A
C1169      C1170   1.402       .  A
C1169      O1175   1.318       .  A
C1170      C1171   1.401   1_565  A
C1170      H1181   1.082       .  S
C1171      C1180   1.360       .  A
C1171      C1172   1.380       .  A
C1172      C1173   1.406       .  A
C1172      O1178   1.321       .  A
C1173      C1174   1.405       .  A
C1173      H1182   1.082       .  S
C1174      C1177   1.365       .  A
O1175      C1176   1.330       .  A
C1176      C1177   1.393   1_565  A
C1177      H1183   1.082       .  S
O1178      C1179   1.332       .  A
C1179      C1180   1.390       .  A
C1180      H1184   1.082       .  S
C1185      C1190   1.381       .  A
C1185      C1186   1.403   1_554  A
C1185      O1191   1.319       .  A
C1186      C1187   1.402       .  A
C1186      H1197   1.082       .  S
C1187      C1196   1.361       .  A
C1187      C1188   1.381   1_545  A
C1188      C1189   1.403   1_556  A
C1188      O1194   1.319       .  A
C1189      C1190   1.403   1_565  A
C1189      H1198   1.082       .  S
C1190      C1193   1.361       .  A
O1191      C1192   1.330       .  A
C1192      C1193   1.391       .  A
C1193      H1199   1.082       .  S
O1194      C1195   1.331       .  A
C1195      C1196   1.390   1_565  A
C1196      H1200   1.082       .  S
C1201      C1206   1.380       .  A
C1201      C1202   1.405   1_545  A
C1201      O1207   1.320       .  A
C1202      C1203   1.404       .  A
C1202      H1213   1.082       .  S
C1203      C1212   1.363       .  A
C1203      C1204   1.380   1_565  A
C1204      C1205   1.407       .  A
C1204      O1210   1.322       .  A
C1205      C1206   1.406       .  A
C1205      H1214   1.082       .  S
C1206      C1209   1.365       .  A
O1207      C1208   1.332       .  A
C1208      C1209   1.393       .  A
C1209      H1215   1.082       .  S
O1210      C1211   1.333   1_545  A
C1211      C1212   1.392       .  A
C1212      H1216   1.082       .  S
C1217      C1222   1.380   1_545  A
C1217      C1218   1.406       .  A
C1217      O1223   1.320       .  A
C1218      C1219   1.405   1_556  A
C1218      H1229   1.082       .  S
C1219      C1228   1.365       .  A
C1219      C1220   1.380       .  A
C1220      C1221   1.403   1_545  A
C1220      O1226   1.318       .  A
C1221      C1222   1.401   1_554  A
C1221      H1230   1.082       .  S
C1222      C1225   1.361       .  A
O1223      C1224   1.332   1_545  A
C1224      C1225   1.390       .  A
C1225      H1231   1.082       .  S
O1226      C1227   1.330       .  A
C1227      C1228   1.392       .  A
C1228      H1232   1.082       .  S
C1233      C1238   1.380       .  A
C1233      C1234   1.406   1_655  A
C1233      O1239   1.321       .  A
C1234      C1235   1.405       .  A
C1234      H1245   1.082       .  S
C1235      C1244   1.364       .  A
C1235      C1236   1.381       .  A
C1236      C1237   1.402       .  A
C1236      O1242   1.317       .  A
C1237      C1238   1.401   1_455  A
C1237      H1246   1.082       .  S
C1238      C1241   1.360       .  A
O1239      C1240   1.332       .  A
C1240      C1241   1.390       .  A
C1241      H1247   1.083       .  S
O1242      C1243   1.329       .  A
C1243      C1244   1.392       .  A
C1244      H1248   1.082       .  S
C1249      C1254   1.380       .  A
C1249      C1250   1.404       .  A
C1249      O1255   1.319       .  A
C1250      C1251   1.403       .  A
C1250      H1261   1.082       .  S
C1251      C1260   1.364       .  A
C1251      C1252   1.381       .  A
C1252      C1253   1.402       .  A
C1252      O1258   1.316       .  A
C1253      C1254   1.401       .  A
C1253      H1262   1.082       .  S
C1254      C1257   1.360       .  A
O1255      C1256   1.331       .  A
C1256      C1257   1.391       .  A
C1257      H1263   1.082       .  S
O1258      C1259   1.329       .  A
C1259      C1260   1.391       .  A
C1260      H1264   1.082       .  S
C1265      C1270   1.380       .  A
C1265      C1266   1.406       .  A
C1265      O1271   1.321       .  A
C1266      C1267   1.405       .  A
C1266      H1277   1.082       .  S
C1267      C1276   1.365       .  A
C1267      C1268   1.381       .  A
C1268      C1269   1.401       .  A
C1268      O1274   1.317       .  A
C1269      C1270   1.400       .  A
C1269      H1278   1.082       .  S
C1270      C1273   1.360       .  A
O1271      C1272   1.332       .  A
C1272      C1273   1.390       .  A
C1273      H1279   1.082       .  S
O1274      C1275   1.329       .  A
C1275      C1276   1.393       .  A
C1276      H1280   1.082       .  S
C1281      C1286   1.381       .  A
C1281      C1282   1.402       .  A
C1281      O1287   1.319       .  A
C1282      C1283   1.401       .  A
C1282      H1293   1.082       .  S
C1283      C1292   1.359       .  A
C1283      C1284   1.380       .  A
C1284      C1285   1.406       .  A
C1284      O1290   1.322       .  A
C1285      C1286   1.406       .  A
C1285      H1294   1.082       .  S
C1286      C1289   1.364       .  A
O1287      C1288   1.330       .  A
C1288      C1289   1.393       .  A
C1289      H1295   1.082       .  S
O1290      C1291   1.332       .  A
C1291      C1292   1.389       .  A
C1292      H1296   1.082       .  S
C1297      C1302   1.380       .  A
C1297      C1298   1.409       .  A
C1297      O1303   1.324       .  A
C1298      C1299   1.409       .  A
C1298      H1309   1.082       .  S
C1299      C1308   1.369       .  A
C1299      C1300   1.380       .  A
C1300      C1301   1.401       .  A
C1300      O1306   1.317       .  A
C1301      C1302   1.400       .  A
C1301      H1310   1.082       .  S
C1302      C1305   1.359       .  A
O1303      C1304   1.334       .  A
C1304      C1305   1.390       .  A
C1305      H1311   1.083       .  S
O1306      C1307   1.329       .  A
C1307      C1308   1.395       .  A
C1308      H1312   1.082       .  S
C1313      C1318   1.381       .  A
C1313      C1314   1.404       .  A
C1313      O1319   1.319       .  A
C1314      C1315   1.403   1_455  A
C1314      H1325   1.082       .  S
C1315      C1324   1.364       .  A
C1315      C1316   1.381       .  A
C1316      C1317   1.403       .  A
C1316      O1322   1.317       .  A
C1317      C1318   1.402   1_655  A
C1317      H1326   1.082       .  S
C1318      C1321   1.362       .  A
O1319      C1320   1.331       .  A
C1320      C1321   1.391       .  A
C1321      H1327   1.082       .  S
O1322      C1323   1.330       .  A
C1323      C1324   1.391       .  A
C1324      H1328   1.082       .  S
C1329      C1334   1.381       .  A
C1329      C1330   1.400       .  A
C1329      O1335   1.315       .  A
C1330      C1331   1.399       .  A
C1330      H1341   1.082       .  S
C1331      C1340   1.359       .  A
C1331      C1332   1.380       .  A
C1332      C1333   1.406       .  A
C1332      O1338   1.321       .  A
C1333      C1334   1.405       .  A
C1333      H1342   1.082       .  S
C1334      C1337   1.365       .  A
O1335      C1336   1.328       .  A
C1336      C1337   1.393       .  A
C1337      H1343   1.082       .  S
O1338      C1339   1.332       .  A
C1339      C1340   1.390       .  A
C1340      H1344   1.083       .  S
C1345      C1350   1.380       .  A
C1345      C1346   1.407       .  A
C1345      O1351   1.322       .  A
C1346      C1347   1.406       .  A
C1346      H1357   1.082       .  S
C1347      C1356   1.366       .  A
C1347      C1348   1.381       .  A
C1348      C1349   1.401       .  A
C1348      O1354   1.316       .  A
C1349      C1350   1.400       .  A
C1349      H1358   1.082       .  S
C1350      C1353   1.359       .  A
O1351      C1352   1.333       .  A
C1352      C1353   1.390       .  A
C1353      H1359   1.083       .  S
O1354      C1355   1.329       .  A
C1355      C1356   1.393       .  A
C1356      H1360   1.083       .  S
C1361      C1366   1.380       .  A
C1361      C1362   1.407       .  A
C1361      O1367   1.321       .  A
C1362      C1363   1.406   1_554  A
C1362      H1373   1.082       .  S
C1363      C1372   1.367       .  A
C1363      C1364   1.380       .  A
C1364      C1365   1.403       .  A
C1364      O1370   1.318       .  A
C1365      C1366   1.402   1_556  A
C1365      H1374   1.082       .  S
C1366      C1369   1.362       .  A
O1367      C1368   1.333       .  A
C1368      C1369   1.390       .  A
C1369      H1375   1.082       .  S
O1370      C1371   1.330       .  A
C1371      C1372   1.393       .  A
C1372      H1376   1.082       .  S
C1377      C1382   1.381       .  A
C1377      C1378   1.402       .  A
C1377      O1383   1.318       .  A
C1378      C1379   1.401       .  A
C1378      H1389   1.082       .  S
C1379      C1388   1.360       .  A
C1379      C1380   1.380       .  A
C1380      C1381   1.405       .  A
C1380      O1386   1.320       .  A
C1381      C1382   1.404       .  A
C1381      H1390   1.082       .  S
C1382      C1385   1.363       .  A
O1383      C1384   1.329       .  A
C1384      C1385   1.391       .  A
C1385      H1391   1.082       .  S
O1386      C1387   1.331       .  A
C1387      C1388   1.390       .  A
C1388      H1392   1.082       .  S
C1393      C1398   1.380       .  A
C1393      C1394   1.402       .  A
C1393      O1399   1.317       .  A
C1394      C1395   1.401       .  A
C1394      H1405   1.082       .  S
C1395      C1404   1.360       .  A
C1395      C1396   1.381       .  A
C1396      C1397   1.405       .  A
C1396      O1402   1.320       .  A
C1397      C1398   1.404       .  A
C1397      H1406   1.082       .  S
C1398      C1401   1.365       .  A
O1399      C1400   1.330       .  A
C1400      C1401   1.392       .  A
C1401      H1407   1.082       .  S
O1402      C1403   1.331       .  A
C1403      C1404   1.390       .  A
C1404      H1408   1.082       .  S
C1409      C1414   1.380       .  A
C1409      C1410   1.407       .  A
C1409      O1415   1.321       .  A
C1410      C1411   1.406   1_554  A
C1410      H1421   1.082       .  S
C1411      C1420   1.366       .  A
C1411      C1412   1.380       .  A
C1412      C1413   1.401       .  A
C1412      O1418   1.317       .  A
C1413      C1414   1.400   1_556  A
C1413      H1422   1.082       .  S
C1414      C1417   1.359       .  A
O1415      C1416   1.332       .  A
C1416      C1417   1.389       .  A
C1417      H1423   1.082       .  S
O1418      C1419   1.329       .  A
C1419      C1420   1.394       .  A
C1420      H1424   1.082       .  S
C1425      C1430   1.380       .  A
C1425      C1426   1.405       .  A
C1425      O1431   1.320       .  A
C1426      C1427   1.404   1_455  A
C1426      H1437   1.082       .  S
C1427      C1436   1.364       .  A
C1427      C1428   1.381       .  A
C1428      C1429   1.402   1_655  A
C1428      O1434   1.317       .  A
C1429      C1430   1.401       .  A
C1429      H1438   1.082       .  S
C1430      C1433   1.360       .  A
O1431      C1432   1.331       .  A
C1432      C1433   1.390       .  A
C1433      H1439   1.083       .  S
O1434      C1435   1.330       .  A
C1435      C1436   1.392       .  A
C1436      H1440   1.082       .  S
