geometry optimzed in LAMMPS
_audit_creation_date              2020-12-01 
_audit_creation_method            'lammps2cif' 
_symmetry_space_group_name_H-M    'P1' 
_symmetry_Int_Tables_number       1 
_symmetry_cell_setting            triclinic 
loop_ 
_symmetry_equiv_pos_as_xyz 
  x,y,z 
_cell_length_a                    41.06147705 
_cell_length_b                    40.91888024041929 
_cell_length_c                    38.29135111454877 
_cell_angle_alpha                 89.52248254400453 
_cell_angle_beta                  90.23460237382186 
_cell_angle_gamma                 89.09954906515834 
loop_ 
_atom_site_label 
_atom_site_type_symbol 
_atom_site_fract_x 
_atom_site_fract_y 
_atom_site_fract_z 
_atom_site_charge 
O1          O  0.41108548  0.00516139  0.62834892    -0.75600
O2          O  0.32198410  0.00168302  0.66368917    -0.75600
O3          O  0.38318062  0.01336231  0.69157558    -0.75700
O4          O  0.35096164  0.99905050  0.60077373    -0.75700
O5          O  0.35774832  0.45857237  0.60340031    -0.75600
O6          O  0.39122975  0.96001540  0.70076617    -0.73200
O7          O  0.33719841  0.47092078  0.66997523    -0.75600
O8          O  0.41845581  0.46568092  0.62621443    -0.75700
Ni9        Ni  0.36643254  0.00676457  0.64609611     1.25400
Ni10       Ni  0.37851202  0.46786557  0.64867405     1.25400
C11         C  0.42684587  0.97766096  0.62606293     0.86600
C12         C  0.31098552  0.97323797  0.67210226     0.86500
C13         C  0.39492523  0.99007619  0.71012031     0.86600
C14         C  0.35098077  0.48177742  0.58116156     0.86700
O15         O  0.45552221  0.05407874  0.90566837    -0.75600
O16         O  0.44553717  0.13977506  0.86057050    -0.75600
O17         O  0.43579321  0.07522835  0.84130078    -0.75700
O18         O  0.45959034  0.11691821  0.92463078    -0.75700
O19         O  0.51201526  0.11587512  0.91022113    -0.75600
O20         O  0.48719868  0.07031436  0.82395871    -0.75600
O21         O  0.49693797  0.13466706  0.84309863    -0.75600
O22         O  0.50739666  0.05442823  0.88904873    -0.75700
Ni23       Ni  0.44713151  0.09663527  0.88318064     1.25400
Ni24       Ni  0.50263780  0.09399711  0.86561739     1.25400
C25         C  0.48445863  0.04113364  0.90564015     0.86600
C26         C  0.47131039  0.15207540  0.84670537     0.86500
C27         C  0.45668822  0.06345216  0.82015773     0.86600
C28         C  0.48910833  0.12183795  0.93259700     0.86700
O29         O  0.07903570  0.43646511  0.62801965    -0.75600
O30         O  0.16881636  0.44121060  0.66220256    -0.75600
O31         O  0.10757570  0.43037309  0.69136343    -0.75700
O32         O  0.13868858  0.44177895  0.59941972    -0.75700
O33         O  0.13494115  0.49595071  0.60315699    -0.75600
O34         O  0.09931711  0.48393247  0.69747359    -0.75600
O35         O  0.16066225  0.49465610  0.66895565    -0.75600
O36         O  0.07622779  0.49066626  0.63223721    -0.75700
Ni37       Ni  0.12394107  0.43549096  0.64538607     1.25400
Ni38       Ni  0.11789678  0.49319826  0.65097962     1.25400
C39         C  0.06325700  0.46386106  0.62421497     0.86600
C40         C  0.17984156  0.46996021  0.66892182     0.86500
C41         C  0.09544183  0.45419848  0.70835537     0.86600
C42         C  0.14071055  0.46983957  0.58520827     0.86700
O43         O  0.04567809  0.39693677  0.90711483    -0.75600
O44         O  0.04726090  0.30984751  0.86513187    -0.75600
O45         O  0.05730677  0.37371190  0.84208874    -0.75700
O46         O  0.04151342  0.33479525  0.92974949    -0.75700
O47         O  0.98787412  0.33751131  0.92143218    -0.75600
O48         O  0.00445543  0.38034649  0.83073402    -0.75600
O49         O  0.99439377  0.31670892  0.85399413    -0.75600
O50         O  0.99224427  0.39817619  0.89699829    -0.75700
Ni51       Ni  0.04992068  0.35353372  0.88595675     1.25400
Ni52       Ni  0.99289937  0.35803201  0.87505143     1.25400
C53         C  0.01738909  0.41102353  0.90984156     0.86600
C54         C  0.01964892  0.29840253  0.85481640     0.86500
C55         C  0.03459858  0.38616638  0.82327734     0.86600
C56         C  0.01286743  0.33146918  0.94138066     0.86700
O57         O  0.04432718  0.06212788  0.12286475    -0.75600
O58         O  0.03750977  0.15144707  0.15826352    -0.75600
O59         O  0.04852737  0.08962610  0.18642821    -0.75700
O60         O  0.03859637  0.12260015  0.09446910    -0.75700
O61         O  0.98462472  0.11908968  0.09733480    -0.75600
O62         O  0.99509299  0.08239810  0.19167968    -0.75600
O63         O  0.98413733  0.14419296  0.16333147    -0.75600
O64         O  0.99027951  0.05998702  0.12641242    -0.75700
Ni65       Ni  0.04419266  0.10688412  0.14059246     1.25400
Ni66       Ni  0.98663622  0.10159540  0.14512220     1.25400
C67         C  0.01735080  0.04675169  0.11862844     0.86600
C68         C  0.00865343  0.16267773  0.16528562     0.86500
C69         C  0.02455273  0.07790393  0.20302848     0.86600
C70         C  0.01083529  0.12446536  0.07969350     0.86700
O71         O  0.07883477  0.01982293  0.40182411    -0.75600
O72         O  0.16623353  0.02588243  0.36197584    -0.75600
O73         O  0.10273222  0.03626147  0.33827433    -0.75700
O74         O  0.14054496  0.01498180  0.42554154    -0.75700
O75         O  0.14050775  0.44849631  0.41459629    -0.75600
O76         O  0.09908263  0.98399598  0.32346212    -0.75600
O77         O  0.16661148  0.45537777  0.34924548    -0.75600
O78         O  0.08192876  0.45423216  0.38469688    -0.75700
Ni79       Ni  0.12226819  0.02623850  0.38200715     1.25400
Ni80       Ni  0.12379915  0.45424898  0.36666893     1.25400
C81         C  0.06599730  0.99116333  0.40220652     0.86600
C82         C  0.17911026  0.99925310  0.34985262     0.86500
C83         C  0.09200699  0.01452863  0.31776989     0.86600
C84         C  0.14533322  0.47335259  0.43457920     0.86700
O85         O  0.42158166  0.43500166  0.40081263    -0.75600
O86         O  0.33560843  0.43244949  0.35701199    -0.75600
O87         O  0.39973780  0.42243966  0.33574078    -0.75700
O88         O  0.35923661  0.43946832  0.42179948    -0.75700
O89         O  0.35984415  0.49320721  0.41253720    -0.75600
O90         O  0.40454768  0.47542253  0.32368204    -0.75600
O91         O  0.34042456  0.48539534  0.34477287    -0.75600
O92         O  0.42109122  0.48859866  0.39016831    -0.75700
Ni93       Ni  0.37882991  0.43038157  0.37883067     1.25400
Ni94       Ni  0.38129672  0.48752687  0.36700663     1.25400
C95         C  0.43480070  0.46335225  0.40321983     0.86600
C96         C  0.32313161  0.45994011  0.34618297     0.86500
C97         C  0.41154647  0.44513113  0.31696321     0.86600
C98         C  0.35431362  0.46832092  0.43267281     0.86700
O99         O  0.47066104  0.39805322  0.12243343    -0.75600
O100        O  0.46645604  0.30931382  0.16115729    -0.75600
O101        O  0.45828861  0.37262064  0.18613351    -0.75700
O102        O  0.47318988  0.33633097  0.09738283    -0.75700
O103        O  0.02266671  0.33923649  0.11243576    -0.75600
O104        O  0.51147225  0.37546229  0.19708986    -0.75600
O105        O  0.51946791  0.31264175  0.17238743    -0.75600
O106        O  0.52419530  0.39554290  0.13163576    -0.75700
Ni107      Ni  0.46516767  0.35392907  0.14168130     1.25400
Ni108      Ni  0.52233959  0.35443277  0.15227036     1.25400
C109        C  0.49915090  0.41104178  0.12086728     0.86600
C110        C  0.49369332  0.29594649  0.17132513     0.86500
C111        C  0.48157484  0.38245175  0.20514329     0.86600
C112        C  0.50163042  0.33056885  0.08582292     0.86700
C113        C  0.43537463  0.44780365  0.25543789    -0.14500
C114        C  0.43494647  0.43423655  0.28917936     0.07700
C115        C  0.45514321  0.40650180  0.29600122    -0.14500
C116        C  0.47339021  0.39135170  0.26948237    -0.14500
C117        C  0.47191813  0.40342501  0.23522377     0.07700
C118        C  0.45333391  0.43229563  0.22871321    -0.14500
H119        H  0.42014817  0.46889395  0.24914120     0.11600
H120        H  0.45564886  0.39549101  0.32183004     0.11600
H121        H  0.48666078  0.36885304  0.27525000     0.11600
H122        H  0.45117834  0.44178166  0.20228979     0.11600
C123        C  0.02076227  0.44363285  0.40762106    -0.14500
C124        C  0.03400082  0.47541299  0.40768937     0.07700
C125        C  0.01050570  0.00875657  0.42225925    -0.14500
C126        C  0.47743173  0.50114368  0.42367996    -0.14500
C127        C  0.46734881  0.46862939  0.41821102     0.07700
C128        C  0.98722268  0.43914682  0.40925669    -0.14500
H129        H  0.03604809  0.42223737  0.40333915     0.11600
H130        H  0.52327091  0.02698964  0.41552285     0.11600
H131        H  0.46488993  0.01934506  0.42025899     0.11600
H132        H  0.97753987  0.41497359  0.40538753     0.11600
C133        C  0.23659223  0.02023219  0.34871298    -0.14500
C134        C  0.21926690  0.47613582  0.34227868     0.07700
C135        C  0.23256403  0.44402863  0.34069936    -0.14500
C136        C  0.26628120  0.43835355  0.33956864    -0.14500
C137        C  0.28762581  0.46463062  0.33916018     0.07700
C138        C  0.27420866  0.49675090  0.33783046    -0.14500
H139        H  0.22792405  0.04453896  0.35527482     0.11600
H140        H  0.21698722  0.42298147  0.34241883     0.11600
H141        H  0.27561985  0.41346742  0.34071819     0.11600
H142        H  0.28632561  0.03302704  0.35599848     0.11600
C143        C  0.04104614  0.48877002  0.09915388    -0.14500
C144        C  0.01549152  0.01251483  0.10724071     0.07700
C145        C  0.48400713  0.00147220  0.09029523    -0.14500
C146        C  0.47908226  0.46625596  0.10089147    -0.14500
C147        C  0.50482682  0.44500891  0.10935337     0.07700
C148        C  0.03338250  0.45573428  0.10119773    -0.14500
H149        H  0.06593025  0.49614176  0.10357111     0.11600
H150        H  0.46417772  0.01906887  0.08717828     0.11600
H151        H  0.45455185  0.45729568  0.09804071     0.11600
H152        H  0.05312637  0.43839505  0.10605752     0.11600
C153        C  0.01917786  0.25254593  0.18725300    -0.14500
C154        C  0.49798863  0.26024934  0.17857273     0.07700
C155        C  0.47230252  0.23838018  0.17549098    -0.14500
C156        C  0.47871629  0.20460145  0.17463890    -0.14500
C157        C  0.00172640  0.19768215  0.17352161     0.07700
C158        C  0.02620876  0.21908270  0.18354937    -0.14500
H159        H  0.03914591  0.26843988  0.19360569     0.11600
H160        H  0.44755479  0.24735264  0.17188957     0.11600
H161        H  0.45839000  0.18851247  0.17054808     0.11600
H162        H  0.05092568  0.21016268  0.18752232     0.11600
C163        C  0.06769744  0.01179597  0.25622073    -0.14500
C164        C  0.06973620  0.02658242  0.28907536     0.07700
C165        C  0.05133033  0.05564896  0.29449653    -0.14500
C166        C  0.03337401  0.07078480  0.26740534    -0.14500
C167        C  0.03308711  0.05724759  0.23401411     0.07700
C168        C  0.04988633  0.02722092  0.22890258    -0.14500
H169        H  0.08141259  0.98955892  0.25103072     0.11600
H170        H  0.05185801  0.06757547  0.31963319     0.11600
H171        H  0.02160421  0.09422899  0.27196567     0.11600
H172        H  0.05086708  0.01671388  0.20304182     0.11600
C173        C  0.47388787  0.31693075  0.99262504    -0.14500
C174        C  0.01034323  0.32367581  0.97937160     0.07700
C175        C  0.03827016  0.32667177  0.00100240    -0.14500
C176        C  0.03578308  0.32692838  0.03750822    -0.14500
C177        C  0.50351970  0.32122223  0.04824863     0.07700
C178        C  0.47421726  0.31718854  0.02918517    -0.14500
H179        H  0.45077295  0.31605871  0.97896882     0.11600
H180        H  0.06193107  0.33127706  0.98976374     0.11600
H181        H  0.05712997  0.33212154  0.05309015     0.11600
H182        H  0.45099266  0.31639400  0.04243401     0.11600
C183        C  0.14418192  0.44124694  0.52760707    -0.14500
C184        C  0.14763379  0.47033396  0.54700956     0.07700
C185        C  0.15515612  0.49908370  0.52900319    -0.14500
C186        C  0.15742622  0.49906885  0.49245732    -0.14500
C187        C  0.15150450  0.47048241  0.47289590     0.07700
C188        C  0.14589670  0.44135075  0.49106502    -0.14500
H189        H  0.13835040  0.41845214  0.54053430     0.11600
H190        H  0.15823519  0.52172636  0.54298853     0.11600
H191        H  0.14965295  0.03208172  0.48580753     0.11600
H192        H  0.14094465  0.41908119  0.47705517     0.11600
C193        C  0.04544445  0.42894527  0.73424244    -0.14500
C194        C  0.07524280  0.44528401  0.73933812     0.07700
C195        C  0.08892026  0.44466747  0.77284618    -0.14500
C196        C  0.07424201  0.42690120  0.79997763    -0.14500
C197        C  0.04543801  0.40895751  0.79462330     0.07700
C198        C  0.03044711  0.41133139  0.76164465    -0.14500
H199        H  0.03473353  0.42822324  0.70836254     0.11600
H200        H  0.11214790  0.45606254  0.77751411     0.11600
H201        H  0.08639746  0.42604881  0.82513209     0.11600
H202        H  0.00845939  0.39792540  0.75639249     0.11600
C203        C  0.46807347  0.13507722  0.99233952    -0.14500
C204        C  0.49506719  0.13129394  0.96961811     0.07700
C205        C  0.03906456  0.12421181  0.98511684    -0.14500
C206        C  0.03955368  0.12539000  0.02177425    -0.14500
C207        C  0.01052860  0.13000662  0.04116463     0.07700
C208        C  0.47198486  0.13474511  0.02871147    -0.14500
H209        H  0.44343817  0.13595338  0.98214271     0.11600
H210        H  0.06130631  0.11839891  0.97123328     0.11600
H211        H  0.06253116  0.12061989  0.03498200     0.11600
H212        H  0.45063603  0.13524303  0.04521976     0.11600
C213        C  0.03505646  0.99178862  0.89595586    -0.14500
C214        C  0.49320091  0.00963682  0.92245451     0.07700
C215        C  0.47862197  0.48809761  0.91382074    -0.14500
C216        C  0.48298020  0.45428898  0.91703501    -0.14500
C217        C  0.01164369  0.44344703  0.92533408     0.07700
C218        C  0.03571165  0.46701528  0.92463771    -0.14500
H219        H  0.05565951  0.00576696  0.88710902     0.11600
H220        H  0.45494461  0.49901431  0.91898085     0.11600
H221        H  0.46217749  0.43985773  0.92440022     0.11600
H222        H  0.06098377  0.46019214  0.92044102     0.11600
C223        C  0.45054286  0.21024748  0.84888873    -0.14500
C224        C  0.47447088  0.18758205  0.83868065     0.07700
C225        C  0.03416824  0.20703860  0.84247116    -0.14500
C226        C  0.04037049  0.24059503  0.84481220    -0.14500
C227        C  0.01453264  0.26317878  0.84667516     0.07700
C228        C  0.45776190  0.24356664  0.85050506    -0.14500
H229        H  0.42701487  0.20208269  0.85779685     0.11600
H230        H  0.05489303  0.19034529  0.84233741     0.11600
H231        H  0.06530118  0.24871176  0.84636243     0.11600
H232        H  0.43914604  0.26017237  0.86017369     0.11600
C233        C  0.33487739  0.50328300  0.52191650    -0.14500
C234        C  0.34217737  0.47607810  0.54396521     0.07700
C235        C  0.34761338  0.44569347  0.52855406    -0.14500
C236        C  0.34877994  0.44317763  0.49215235    -0.14500
C237        C  0.34516967  0.47108187  0.47017326     0.07700
C238        C  0.33684978  0.50093444  0.48546097    -0.14500
H239        H  0.33008636  0.52718325  0.53287981     0.11600
H240        H  0.35339339  0.42438462  0.54449832     0.11600
H241        H  0.35498007  0.41950045  0.48141607     0.11600
H242        H  0.33352050  0.52270193  0.46948416     0.11600
C243        C  0.48040062  0.00202928  0.61056410    -0.14500
C244        C  0.46291543  0.48330051  0.59481570     0.07700
C245        C  0.47285835  0.45028564  0.59023456    -0.14500
C246        C  0.50580184  0.44131059  0.59132765    -0.14500
C247        C  0.02889002  0.46633674  0.61306825     0.07700
C248        C  0.01420041  0.49774975  0.60934372    -0.14500
H249        H  0.46989592  0.02646510  0.61129219     0.11600
H250        H  0.45512895  0.43096428  0.59030495     0.11600
H251        H  0.51267512  0.41566350  0.59278931     0.11600
H252        H  0.03676867  0.01765237  0.59384581     0.11600
C253        C  0.27173899  0.45913280  0.68100619    -0.14500
C254        C  0.28309504  0.49089874  0.67311267     0.07700
C255        C  0.25295341  0.99277101  0.68039771    -0.14500
C256        C  0.22655619  0.50886726  0.66759699    -0.14500
C257        C  0.21527242  0.47676322  0.67361528     0.07700
C258        C  0.23834812  0.45207795  0.68081981    -0.14500
H259        H  0.28878118  0.43908023  0.68560340     0.11600
H260        H  0.26088601  0.01787569  0.68085222     0.11600
H261        H  0.20285240  0.00704627  0.68059989     0.11600
H262        H  0.23067995  0.42722446  0.68544070     0.11600
C263        C  0.41222505  0.02754542  0.79751640    -0.14500
C264        C  0.44372031  0.04054021  0.79290609     0.07700
C265        C  0.46089973  0.03144583  0.76271542    -0.14500
C266        C  0.44603397  0.01179520  0.73707733    -0.14500
C267        C  0.41403543  0.00008413  0.74135218     0.07700
C268        C  0.39763519  0.00789331  0.77218193    -0.14500
H269        H  0.39812727  0.03338283  0.82053867     0.11600
H270        H  0.48507782  0.04069908  0.75814992     0.11600
H271        H  0.45884754  0.00729583  0.71286775     0.11600
H272        H  0.37266091  0.00045294  0.77575906     0.11600
O273        O  0.41650434  0.51829464  0.61095800    -0.75600
O274        O  0.32970679  0.52254031  0.65279703    -0.75600
O275        O  0.39290773  0.53512774  0.67484602    -0.75700
O276        O  0.35458537  0.51143488  0.58947569    -0.75700
O277        O  0.35543747  0.94505995  0.60695291    -0.75600
O278        O  0.40098049  0.48346824  0.69128238    -0.73200
O279        O  0.32992621  0.94836905  0.67275737    -0.75600
O280        O  0.41410782  0.95120699  0.63600832    -0.75700
Ni281      Ni  0.37322348  0.52381724  0.63190211     1.25400
Ni282      Ni  0.37256583  0.94926408  0.65473499     1.25400
C283        C  0.43082448  0.48991756  0.61068068     0.86600
C284        C  0.31850091  0.49574569  0.66588580     0.86500
C285        C  0.40556681  0.51439006  0.69610665     0.86600
C286        C  0.34925425  0.97065912  0.58781107     0.86700
O287        O  0.47108622  0.55633830  0.88997590    -0.75600
O288        O  0.46934715  0.64724913  0.85720433    -0.75600
O289        O  0.45758617  0.58659764  0.82809037    -0.75700
O290        O  0.47712913  0.61607650  0.91860951    -0.75700
O291        O  0.53043768  0.61453420  0.90853964    -0.75600
O292        O  0.51006680  0.57949708  0.81544340    -0.75600
O293        O  0.52162451  0.64090349  0.84343268    -0.75600
O294        O  0.52432717  0.55560577  0.87933719    -0.75700
Ni295      Ni  0.46682976  0.60176188  0.87360052     1.25400
Ni296      Ni  0.52345716  0.59773411  0.86097355     1.25400
C297        C  0.49911498  0.54144958  0.89031144     0.86600
C298        C  0.49670155  0.65935444  0.84710062     0.86500
C299        C  0.47959120  0.57603675  0.80759126     0.86600
C300        C  0.50612155  0.61979270  0.92931928     0.86700
O301        O  0.07489807  0.92906081  0.61213874    -0.75600
O302        O  0.16123162  0.92287381  0.65592934    -0.75600
O303        O  0.09744326  0.91101388  0.67653352    -0.75700
O304        O  0.13720266  0.93543754  0.59185870    -0.75700
O305        O  0.13477621  0.98810116  0.60574449    -0.75600
O306        O  0.09045622  0.96267239  0.69262680    -0.75600
O307        O  0.15419171  0.97438626  0.67271773    -0.75600
O308        O  0.07370795  0.98144286  0.62734637    -0.75700
Ni309      Ni  0.11790194  0.92258867  0.63398269     1.25400
Ni310      Ni  0.11337863  0.97839196  0.65052102     1.25400
C311        C  0.06098877  0.95764639  0.61169857     0.86600
C312        C  0.17257477  0.94938204  0.66917834     0.86500
C313        C  0.08497372  0.93186811  0.69733690     0.86600
C314        C  0.14139526  0.96518348  0.58361209     0.86700
O315        O  0.03826977  0.88679619  0.89150343    -0.75600
O316        O  0.02678192  0.79823987  0.85710122    -0.75600
O317        O  0.03938581  0.85846766  0.82804422    -0.75700
O318        O  0.03048551  0.82698938  0.92066248    -0.75700
O319        O  0.97663002  0.83391402  0.91852621    -0.75600
O320        O  0.98638497  0.87054224  0.82425736    -0.75600
O321        O  0.97368590  0.80944984  0.85249453    -0.75600
O322        O  0.98427348  0.89296481  0.88995241    -0.75700
Ni323      Ni  0.03565466  0.84212397  0.87426955     1.25400
Ni324      Ni  0.97831823  0.85175250  0.87094053     1.25400
C325        C  0.01221320  0.90419696  0.89650985     0.86600
C326        C  0.99741460  0.78921587  0.85039242     0.86500
C327        C  0.01553676  0.87176110  0.81168265     0.86600
C328        C  0.00292294  0.82643194  0.93571065     0.86700
O329        O  0.04723992  0.55970749  0.11374910    -0.75600
O330        O  0.04497549  0.64637133  0.15583733    -0.75600
O331        O  0.06011195  0.58359373  0.17818471    -0.75700
O332        O  0.03744069  0.62153651  0.09143584    -0.75700
O333        O  0.98455116  0.61682053  0.10245706    -0.75600
O334        O  0.00855261  0.57442158  0.19194140    -0.75600
O335        O  0.99315649  0.63788051  0.16956432    -0.75600
O336        O  0.99447259  0.55634291  0.12624927    -0.75700
Ni337      Ni  0.04936534  0.60313440  0.13472480     1.25400
Ni338      Ni  0.99334338  0.59644121  0.14838831     1.25400
C339        C  0.01990896  0.54453701  0.11226831     0.86600
C340        C  0.01730942  0.65685241  0.16764295     0.86500
C341        C  0.03938854  0.57038311  0.19829124     0.86600
C342        C  0.00802844  0.62382178  0.08128777     0.86700
O343        O  0.08203504  0.50776240  0.39458559    -0.75600
O344        O  0.17142894  0.50848306  0.35973320    -0.75600
O345        O  0.11021375  0.51940495  0.33182738    -0.75700
O346        O  0.14232267  0.50224805  0.42252351    -0.75700
O347        O  0.14065860  0.96187635  0.41353098    -0.75600
O348        O  0.10535454  0.46638868  0.32056309    -0.75600
O349        O  0.16220514  0.97368309  0.34708986    -0.75600
O350        O  0.08037367  0.96704817  0.38821360    -0.75700
Ni351      Ni  0.12668772  0.51142394  0.37728831     1.25400
Ni352      Ni  0.12083281  0.96986689  0.36726781     1.25400
C353        C  0.06775736  0.47982222  0.39568355     0.86600
C354        C  0.18396427  0.48081599  0.35011910     0.86500
C355        C  0.10079313  0.49674566  0.31181659     0.86600
C356        C  0.14522906  0.98552891  0.43521038     0.86700
O357        O  0.41722661  0.93781684  0.39616180    -0.75600
O358        O  0.32858400  0.94496475  0.35880862    -0.75600
O359        O  0.39040881  0.93433299  0.33195731    -0.75700
O360        O  0.35644386  0.94307591  0.42298783    -0.75700
O361        O  0.35899223  0.99732027  0.42003422    -0.75600
O362        O  0.39840522  0.98793090  0.32747112    -0.75600
O363        O  0.33613050  0.99847858  0.35306644    -0.75600
O364        O  0.41885944  0.99214739  0.39375043    -0.75700
Ni365      Ni  0.37279765  0.93806493  0.37739839     1.25400
Ni366      Ni  0.37797967  0.99587426  0.37316070     1.25400
C367        C  0.43234965  0.96488780  0.40103484     0.86600
C368        C  0.31754031  0.97401048  0.35145404     0.86500
C369        C  0.40253288  0.95855930  0.31586636     0.86600
C370        C  0.35318996  0.97080285  0.43740412     0.86700
O371        O  0.46460724  0.90133610  0.11844426    -0.75600
O372        O  0.45720781  0.81480277  0.16131033    -0.75600
O373        O  0.44606388  0.87903803  0.18229780    -0.75700
O374        O  0.47019503  0.83888724  0.09809303    -0.75700
O375        O  0.02690702  0.83493803  0.10553196    -0.75600
O376        O  0.49750025  0.88302714  0.19983765    -0.75600
O377        O  0.50868958  0.81895377  0.17878175    -0.75600
O378        O  0.51661202  0.90055537  0.13512354    -0.75700
Ni379      Ni  0.45755045  0.85843072  0.13992307     1.25400
Ni380      Ni  0.51315792  0.86031023  0.15752637     1.25400
C381        C  0.49314655  0.91421975  0.11877223     0.86600
C382        C  0.48351395  0.80176950  0.17430449     0.86500
C383        C  0.46687381  0.89009471  0.20376169     0.86600
C384        C  0.49974962  0.83356911  0.09016473     0.86700
C385        C  0.40699278  0.94516382  0.25276307    -0.14500
C386        C  0.42255220  0.95040173  0.28471538     0.07700
C387        C  0.45454731  0.93770041  0.28929989    -0.14500
C388        C  0.47010757  0.91923713  0.26289281    -0.14500
C389        C  0.45361185  0.91240214  0.23160650     0.07700
C390        C  0.42227318  0.92670115  0.22665543    -0.14500
H391        H  0.38207250  0.95352180  0.24882081     0.11600
H392        H  0.46672478  0.94031484  0.31425458     0.11600
H393        H  0.49416645  0.90892833  0.26770571     0.11600
H394        H  0.40877689  0.92264738  0.20276709     0.11600
C395        C  0.02366198  0.95103023  0.41809625    -0.14500
C396        C  0.03356200  0.98403430  0.41656255     0.07700
C397        C  0.01360965  0.50205269  0.41475966    -0.14500
C398        C  0.48033059  0.99783763  0.41733781    -0.14500
C399        C  0.46673797  0.96665652  0.41194952     0.07700
C400        C  0.99077079  0.94322983  0.41838250    -0.14500
H401        H  0.04114610  0.93113944  0.41520100     0.11600
H402        H  0.51726065  0.53449226  0.42200759     0.11600
H403        H  0.45973403  0.52102706  0.42485565     0.11600
H404        H  0.98374459  0.91807514  0.41479353     0.11600
C405        C  0.24050006  0.50243462  0.33981683    -0.14500
C406        C  0.21454012  0.99528809  0.34219485     0.07700
C407        C  0.22715349  0.96382786  0.33397035    -0.14500
C408        C  0.26064641  0.95679938  0.33541560    -0.14500
C409        C  0.28251834  0.98127713  0.34406383     0.07700
C410        C  0.27015411  0.01338494  0.34925681    -0.14500
H411        H  0.23121642  0.52732940  0.34081031     0.11600
H412        H  0.21098462  0.94382562  0.32858571     0.11600
H413        H  0.26926518  0.93202849  0.33102986     0.11600
H414        H  0.28986394  0.51779642  0.33758728     0.11600
C415        C  0.04195867  0.99110719  0.11138280    -0.14500
C416        C  0.01589098  0.51192978  0.09706881     0.07700
C417        C  0.48446955  0.49980192  0.09929891    -0.14500
C418        C  0.47617879  0.96855339  0.09368936    -0.14500
C419        C  0.50068556  0.94590137  0.10225744     0.07700
C420        C  0.03675739  0.95752000  0.11197227    -0.14500
H421        H  0.06597919  0.00020517  0.11724138     0.11600
H422        H  0.46358840  0.51586881  0.09499837     0.11600
H423        H  0.45086987  0.96151683  0.09325540     0.11600
H424        H  0.05752701  0.94166827  0.11760130     0.11600
C425        C  0.03002473  0.74713109  0.18315144    -0.14500
C426        C  0.48765686  0.76581598  0.18007116     0.07700
C427        C  0.46281470  0.74413091  0.17183351    -0.14500
C428        C  0.46966583  0.71058569  0.16893960    -0.14500
C429        C  0.01104158  0.69182344  0.17605891     0.07700
C430        C  0.03647782  0.71350650  0.18131027    -0.14500
H431        H  0.05065803  0.76308462  0.18580489     0.11600
H432        H  0.43851164  0.75322213  0.16577870     0.11600
H433        H  0.45001544  0.69484128  0.16115884     0.11600
H434        H  0.06144653  0.70463525  0.18262630     0.11600
C435        C  0.10288161  0.52854731  0.25697927    -0.14500
C436        C  0.08485981  0.50805211  0.27871988     0.07700
C437        C  0.05066051  0.50785825  0.27419295    -0.14500
C438        C  0.03509700  0.52804483  0.24853625    -0.14500
C439        C  0.05343490  0.54929195  0.22739412     0.07700
C440        C  0.08762772  0.54863737  0.23198435    -0.14500
H441        H  0.12898215  0.53034626  0.26063565     0.11600
H442        H  0.03587480  0.49338885  0.29162435     0.11600
H443        H  0.00887882  0.52738068  0.24564690     0.11600
H444        H  0.10306628  0.56423497  0.21646258     0.11600
C445        C  0.48056729  0.81760349  0.99527628    -0.14500
C446        C  0.00294905  0.81971477  0.97406106     0.07700
C447        C  0.03259165  0.82024119  0.99311240    -0.14500
C448        C  0.03287667  0.82120844  0.02977839    -0.14500
C449        C  0.50548181  0.82366362  0.05332102     0.07700
C450        C  0.47825798  0.81697866  0.03176045    -0.14500
H451        H  0.45877445  0.81483968  0.97963050     0.11600
H452        H  0.05563501  0.82218411  0.97966802     0.11600
H453        H  0.05579295  0.82410260  0.04340827     0.11600
H454        H  0.45437044  0.81366847  0.04300675     0.11600
C455        C  0.15556061  0.94466382  0.52388846    -0.14500
C456        C  0.15110028  0.97148976  0.54668134     0.07700
C457        C  0.15067481  0.00299651  0.53227576    -0.14500
C458        C  0.15185463  0.00735640  0.49593825    -0.14500
C459        C  0.15281527  0.98030363  0.47301391     0.07700
C460        C  0.15601112  0.94897770  0.48754755    -0.14500
H461        H  0.15641371  0.91985710  0.53395381     0.11600
H462        H  0.14736411  0.02411701  0.54881786     0.11600
H463        H  0.16204070  0.52209603  0.47938548     0.11600
H464        H  0.15696893  0.92771569  0.47091550     0.11600
C465        C  0.05537242  0.88494517  0.72497258    -0.14500
C466        C  0.06309211  0.91852611  0.72550022     0.07700
C467        C  0.04919263  0.93765720  0.75217393    -0.14500
C468        C  0.03008827  0.92303084  0.77863248    -0.14500
C469        C  0.02397107  0.88912936  0.77866166     0.07700
C470        C  0.03642379  0.87057702  0.75108443    -0.14500
H471        H  0.06488755  0.86914876  0.70476378     0.11600
H472        H  0.05410063  0.96353783  0.75338616     0.11600
H473        H  0.02190012  0.93781649  0.80032185     0.11600
H474        H  0.03319012  0.84434444  0.75090867     0.11600
C475        C  0.48107779  0.63571909  0.98639171    -0.14500
C476        C  0.50952894  0.62826694  0.96699255     0.07700
C477        C  0.02620694  0.63075292  0.98432912    -0.14500
C478        C  0.03016285  0.63132819  0.02072292    -0.14500
C479        C  0.00297277  0.63154222  0.04348390     0.07700
C480        C  0.48146029  0.63621824  0.02293448    -0.14500
H481        H  0.45781713  0.63935972  0.97339285     0.11600
H482        H  0.04744273  0.62792082  0.96788883     0.11600
H483        H  0.05472502  0.62923515  0.03098656     0.11600
H484        H  0.45884074  0.64006112  0.03686222     0.11600
C485        C  0.02650677  0.49996298  0.92396184    -0.14500
C486        C  0.50408203  0.50703697  0.90133192     0.07700
C487        C  0.46969372  0.98641013  0.92968364    -0.14500
C488        C  0.47904077  0.95353840  0.93193605    -0.14500
C489        C  0.01262829  0.93874187  0.90682456     0.07700
C490        C  0.03917382  0.95801013  0.89843676    -0.14500
H491        H  0.04544830  0.51774651  0.92013402     0.11600
H492        H  0.44404424  0.99303865  0.92971864     0.11600
H493        H  0.45999671  0.93562957  0.93414682     0.11600
H494        H  0.06211680  0.94694072  0.89058629     0.11600
C495        C  0.47608806  0.71788026  0.84335157    -0.14500
C496        C  0.50191533  0.69521902  0.84279547     0.07700
C497        C  0.00490748  0.69929661  0.82761904    -0.14500
C498        C  0.01240668  0.73247903  0.83012993    -0.14500
C499        C  0.98922164  0.75475166  0.84270688     0.07700
C500        C  0.48228807  0.75145943  0.84484041    -0.14500
H501        H  0.45115415  0.70966141  0.84383528     0.11600
H502        H  0.02404125  0.68262987  0.81928685     0.11600
H503        H  0.03660988  0.74049253  0.82338416     0.11600
H504        H  0.46153139  0.76803089  0.84640948     0.11600
C505        C  0.33970914  0.99909541  0.53033663    -0.14500
C506        C  0.34280382  0.96940031  0.54947520     0.07700
C507        C  0.34443393  0.94013760  0.53088588    -0.14500
C508        C  0.34528340  0.94076156  0.49425071    -0.14500
C509        C  0.34514591  0.97068054  0.47532633     0.07700
C510        C  0.34121238  0.99975005  0.49382683    -0.14500
H511        H  0.33811061  0.02231916  0.54361636     0.11600
H512        H  0.34679399  0.91695207  0.54457275     0.11600
H513        H  0.34807258  0.91768466  0.48087259     0.11600
H514        H  0.34081586  0.02308067  0.48025919     0.11600
C515        C  0.48617792  0.50762058  0.59272492    -0.14500
C516        C  0.46089146  0.97468541  0.61425637     0.07700
C517        C  0.47547414  0.94313823  0.61225855    -0.14500
C518        C  0.50923329  0.93909000  0.61224052    -0.14500
C519        C  0.02899811  0.96508237  0.59550812     0.07700
C520        C  0.01911713  0.99832694  0.59222418    -0.14500
H521        H  0.47927275  0.53313709  0.59540064     0.11600
H522        H  0.46092475  0.92134019  0.61385173     0.11600
H523        H  0.51978245  0.91471589  0.61435704     0.11600
H524        H  0.02879299  0.51955612  0.60879563     0.11600
C525        C  0.26408070  0.93469331  0.67754665    -0.14500
C526        C  0.27570995  0.96713066  0.67817992     0.07700
C527        C  0.25992525  0.51576937  0.66701647    -0.14500
C528        C  0.21955218  0.98630366  0.68029121    -0.14500
C529        C  0.20784036  0.95406008  0.67704013     0.07700
C530        C  0.23059360  0.92825768  0.67651450    -0.14500
H531        H  0.28090306  0.91413028  0.67576565     0.11600
H532        H  0.26755393  0.54025311  0.66039048     0.11600
H533        H  0.20955602  0.52863397  0.66153271     0.11600
H534        H  0.22260491  0.90330042  0.67390790     0.11600
C535        C  0.46831203  0.52548207  0.77119149    -0.14500
C536        C  0.46746360  0.55984853  0.77520072     0.07700
C537        C  0.44623974  0.57797297  0.75354219    -0.14500
C538        C  0.42637692  0.56274293  0.72896967    -0.14500
C539        C  0.42646446  0.52842759  0.72486075     0.07700
C540        C  0.44823123  0.50993772  0.74610700    -0.14500
H541        H  0.48333374  0.51054597  0.78853758     0.11600
H542        H  0.44390074  0.60418951  0.75675167     0.11600
H543        H  0.41033946  0.57829299  0.71338010     0.11600
H544        H  0.44950069  0.48361533  0.74363450     0.11600
O545        O  0.91656444  0.01801972  0.61091700    -0.75600
O546        O  0.82977735  0.02240839  0.65277501    -0.75600
O547        O  0.89300252  0.03494168  0.67479869    -0.75700
O548        O  0.85463148  0.01121588  0.58946426    -0.75700
O549        O  0.85545926  0.44497747  0.60687860    -0.75600
O550        O  0.90100117  0.98328788  0.69129435    -0.73200
O551        O  0.82995284  0.44829087  0.67268345    -0.75600
O552        O  0.91414260  0.45105318  0.63593823    -0.75700
Ni553      Ni  0.87329426  0.02361474  0.63187070     1.25400
Ni554      Ni  0.87259578  0.44914729  0.65466369     1.25400
C555        C  0.93085412  0.98962650  0.61067087     0.86600
C556        C  0.81853802  0.99563413  0.66587767     0.86500
C557        C  0.90563010  0.01420757  0.69608469     0.86600
C558        C  0.84929657  0.47058990  0.58774948     0.86700
O559        O  0.97116846  0.05612686  0.88995925    -0.75600
O560        O  0.96940623  0.14703606  0.85718465    -0.75600
O561        O  0.95766111  0.08637905  0.82807167    -0.75700
O562        O  0.97719346  0.11586962  0.91859353    -0.75700
O563        O  0.03050243  0.11434128  0.90852443    -0.75600
O564        O  0.01014460  0.07929503  0.81542799    -0.75600
O565        O  0.02168573  0.14070256  0.84341611    -0.75600
O566        O  0.02441010  0.05540692  0.87932343    -0.75700
Ni567      Ni  0.96689974  0.10154864  0.87358292     1.25400
Ni568      Ni  0.02352870  0.09753537  0.86095879     1.25400
C569        C  0.99920050  0.04124438  0.89029471     0.86600
C570        C  0.99675858  0.15914750  0.84708304     0.86500
C571        C  0.97967055  0.07582565  0.80757364     0.86600
C572        C  0.00618456  0.11959903  0.92930235     0.86700
O573        O  0.57486111  0.42937189  0.61221055    -0.75600
O574        O  0.66119920  0.42303152  0.65596593    -0.75600
O575        O  0.59739082  0.41125183  0.67658480    -0.75700
O576        O  0.63717151  0.43567853  0.59191488    -0.75700
O577        O  0.63481233  0.48833489  0.60584228    -0.75600
O578        O  0.59050250  0.46291121  0.69272238    -0.75600
O579        O  0.65424444  0.47454485  0.67278755    -0.75600
O580        O  0.57374171  0.48174143  0.62746760    -0.75700
Ni581      Ni  0.61786133  0.42282502  0.63403544     1.25400
Ni582      Ni  0.61342367  0.47862301  0.65061836     1.25400
C583        C  0.56098464  0.45797290  0.61180580     0.86600
C584        C  0.67258991  0.44951669  0.66921899     0.86500
C585        C  0.58496084  0.43211587  0.69740467     0.86600
C586        C  0.64139948  0.46542520  0.58369173     0.86700
O587        O  0.53820635  0.38701752  0.89152900    -0.75600
O588        O  0.52678259  0.29847512  0.85706379    -0.75600
O589        O  0.53934548  0.35873721  0.82805299    -0.75700
O590        O  0.53046375  0.32718679  0.92064745    -0.75700
O591        O  0.47660435  0.33407841  0.91851829    -0.75600
O592        O  0.48633359  0.37076384  0.82427343    -0.75600
O593        O  0.47367881  0.30964683  0.85246991    -0.75600
O594        O  0.48420657  0.39315326  0.88998106    -0.75700
Ni595      Ni  0.53562330  0.34235519  0.87426489     1.25400
Ni596      Ni  0.47828022  0.35194367  0.87094381     1.25400
C597        C  0.51213983  0.40440158  0.89653967     0.86600
C598        C  0.49742223  0.28943170  0.85035035     0.86500
C599        C  0.51548556  0.37202490  0.81170552     0.86600
C600        C  0.50290247  0.32660436  0.93569698     0.86700
O601        O  0.54738429  0.05983925  0.11372127    -0.75600
O602        O  0.54498993  0.14652549  0.15574389    -0.75600
O603        O  0.56018547  0.08380049  0.17814906    -0.75700
O604        O  0.53752102  0.12163720  0.09135918    -0.75700
O605        O  0.48463059  0.11686844  0.10234855    -0.75600
O606        O  0.50862936  0.07457855  0.19189177    -0.75600
O607        O  0.49317109  0.13798845  0.16943980    -0.75600
O608        O  0.49461639  0.05641717  0.12619986    -0.75700
Ni609      Ni  0.54944297  0.10328171  0.13466550     1.25400
Ni610      Ni  0.49342108  0.09653221  0.14830169     1.25400
C611        C  0.52007138  0.04463901  0.11223066     0.86600
C612        C  0.51730845  0.15698119  0.16753270     0.86500
C613        C  0.53946557  0.07063868  0.19829598     0.86600
C614        C  0.50811273  0.12388826  0.08119325     0.86700
O615        O  0.58230792  0.00807412  0.39477919    -0.75600
O616        O  0.67169847  0.00865077  0.35991947    -0.75600
O617        O  0.61053326  0.01979150  0.33204637    -0.75700
O618        O  0.64258370  0.00233966  0.42268130    -0.75700
O619        O  0.64054134  0.46213966  0.41363696    -0.75600
O620        O  0.60550059  0.96683074  0.32060875    -0.75600
O621        O  0.66204954  0.47391599  0.34717696    -0.75600
O622        O  0.58023970  0.46731567  0.38835835    -0.75700
Ni623      Ni  0.62696975  0.01166139  0.37748168     1.25400
Ni624      Ni  0.62069084  0.47011507  0.36738624     1.25400
C625        C  0.56796559  0.98016629  0.39581878     0.86600
C626        C  0.68415905  0.98097887  0.35022114     0.86500
C627        C  0.60106176  0.99722420  0.31194238     0.86600
C628        C  0.64512431  0.48579888  0.43530356     0.86700
O629        O  0.91693496  0.43760169  0.39606749    -0.75600
O630        O  0.82831373  0.44498361  0.35871574    -0.75600
O631        O  0.89011796  0.43421524  0.33186167    -0.75700
O632        O  0.85616734  0.44300822  0.42290013    -0.75700
O633        O  0.85885242  0.49724502  0.41996489    -0.75600
O634        O  0.89825295  0.48779251  0.32741141    -0.75600
O635        O  0.83598815  0.49848019  0.35299750    -0.75600
O636        O  0.91870334  0.49192820  0.39369055    -0.75700
Ni637      Ni  0.87250856  0.43797050  0.37730442     1.25400
Ni638      Ni  0.87783455  0.49576696  0.37309532     1.25400
C639        C  0.93212420  0.46463071  0.40095810     0.86600
C640        C  0.81733899  0.47405717  0.35137749     0.86500
C641        C  0.90232012  0.45841723  0.31579739     0.86600
C642        C  0.85299645  0.47073861  0.43732973     0.86700
O643        O  0.96446766  0.40118422  0.11845545    -0.75600
O644        O  0.95717509  0.31463237  0.16130829    -0.75600
O645        O  0.94596726  0.37885144  0.18230823    -0.75700
O646        O  0.97011585  0.33874292  0.09808910    -0.75700
O647        O  0.52685632  0.33505531  0.10553123    -0.75600
O648        O  0.99740333  0.38289912  0.19983010    -0.75600
O649        O  0.00865589  0.31883478  0.17876566    -0.75600
O650        O  0.01647925  0.40045023  0.13510938    -0.75700
Ni651      Ni  0.95746402  0.35826494  0.13992741     1.25400
Ni652      Ni  0.01307362  0.36019881  0.15751096     1.25400
C653        C  0.99299406  0.41409619  0.11877322     0.86600
C654        C  0.98349703  0.30162478  0.17429471     0.86500
C655        C  0.96677043  0.38993391  0.20376296     0.86600
C656        C  0.99967173  0.33344976  0.09014949     0.86700
C657        C  0.90685225  0.44500969  0.25269993    -0.14500
C658        C  0.92237098  0.45022810  0.28467826     0.07700
C659        C  0.95435326  0.43750654  0.28930960    -0.14500
C660        C  0.96994237  0.41904729  0.26291757    -0.14500
C661        C  0.95348791  0.41223833  0.23159936     0.07700
C662        C  0.92216145  0.42655296  0.22660697    -0.14500
H663        H  0.88194247  0.45338507  0.24872046     0.11600
H664        H  0.96649766  0.44010599  0.31428491     0.11600
H665        H  0.99398874  0.40872188  0.26776437     0.11600
H666        H  0.90869730  0.42251770  0.20269380     0.11600
C667        C  0.52352126  0.45133493  0.41825207    -0.14500
C668        C  0.53341647  0.48433840  0.41666322     0.07700
C669        C  0.51379692  0.00245935  0.41473077    -0.14500
C670        C  0.98014550  0.49744173  0.41742087    -0.14500
C671        C  0.96651777  0.46630540  0.41186197     0.07700
C672        C  0.49063034  0.44352691  0.41847093    -0.14500
H673        H  0.54101843  0.43144313  0.41544603     0.11600
H674        H  0.01743355  0.03417910  0.42207611     0.11600
H675        H  0.95990955  0.02072111  0.42503341     0.11600
H676        H  0.48361862  0.41836167  0.41493132     0.11600
C677        C  0.74072254  0.00249721  0.33989032    -0.14500
C678        C  0.71437486  0.49551727  0.34218526     0.07700
C679        C  0.72694485  0.46407975  0.33379836    -0.14500
C680        C  0.76042754  0.45699768  0.33522337    -0.14500
C681        C  0.78233112  0.48140440  0.34400745     0.07700
C682        C  0.77001408  0.51350543  0.34935024    -0.14500
H683        H  0.73148128  0.02740718  0.34089020     0.11600
H684        H  0.71074756  0.44412661  0.32830508     0.11600
H685        H  0.76901345  0.43223625  0.33071466     0.11600
H686        H  0.79010823  0.01777604  0.33761452     0.11600
C687        C  0.54189944  0.49122499  0.11141677    -0.14500
C688        C  0.51609156  0.01203189  0.09702317     0.07700
C689        C  0.98452961  0.99968034  0.09925814    -0.14500
C690        C  0.97597321  0.46844996  0.09378034    -0.14500
C691        C  0.00049783  0.44579045  0.10226514     0.07700
C692        C  0.53669933  0.45763691  0.11198591    -0.14500
H693        H  0.56592016  0.50032116  0.11727769     0.11600
H694        H  0.96364918  0.01574657  0.09494938     0.11600
H695        H  0.95066407  0.46141190  0.09339752     0.11600
H696        H  0.55746920  0.44178223  0.11760523     0.11600
C697        C  0.52996243  0.24725447  0.18309851    -0.14500
C698        C  0.98767416  0.26567436  0.18006210     0.07700
C699        C  0.96283687  0.24397024  0.17186774    -0.14500
C700        C  0.96970459  0.21042788  0.16898181    -0.14500
C701        C  0.51101267  0.19194317  0.17595868     0.07700
C702        C  0.53643474  0.21363643  0.18123373    -0.14500
H703        H  0.55058709  0.26321646  0.18577001     0.11600
H704        H  0.93852141  0.25304380  0.16584219     0.11600
H705        H  0.95005406  0.19466961  0.16123429     0.11600
H706        H  0.56140804  0.20477885  0.18255213     0.11600
C707        C  0.60300996  0.03004594  0.25779538    -0.14500
C708        C  0.58523465  0.00870668  0.27884191     0.07700
C709        C  0.55114927  0.00760591  0.27365322    -0.14500
C710        C  0.53545874  0.02772791  0.24801630    -0.14500
C711        C  0.55353924  0.04977225  0.22755254     0.07700
C712        C  0.58762406  0.05006264  0.23284063    -0.14500
H713        H  0.62898081  0.03251511  0.26195912     0.11600
H714        H  0.53650495  0.99244289  0.29053504     0.11600
H715        H  0.50934065  0.02632419  0.24455086     0.11600
H716        H  0.60285482  0.06632685  0.21787528     0.11600
C717        C  0.98049621  0.31750126  0.99524986    -0.14500
C718        C  0.50293425  0.31986901  0.97404406     0.07700
C719        C  0.53257379  0.32042864  0.99309844    -0.14500
C720        C  0.53285442  0.32137884  0.02976525    -0.14500
C721        C  0.00539941  0.32354240  0.05330329     0.07700
C722        C  0.97816946  0.31690580  0.03173226    -0.14500
H723        H  0.95870188  0.31477992  0.97959632     0.11600
H724        H  0.55561473  0.32241271  0.97965698     0.11600
H725        H  0.55576461  0.32430300  0.04339847     0.11600
H726        H  0.95426800  0.31365421  0.04296552     0.11600
C727        C  0.65559922  0.44493636  0.52396667    -0.14500
C728        C  0.65110097  0.47175075  0.54676542     0.07700
C729        C  0.65060754  0.50326028  0.53236572    -0.14500
C730        C  0.65174856  0.50762880  0.49602853    -0.14500
C731        C  0.65274113  0.48058077  0.47310037     0.07700
C732        C  0.65601259  0.44925750  0.48762579    -0.14500
H733        H  0.65650700  0.42012983  0.53402993     0.11600
H734        H  0.64726367  0.52437223  0.54891325     0.11600
H735        H  0.66271550  0.02193974  0.47949590     0.11600
H736        H  0.65700164  0.42799984  0.47098905     0.11600
C737        C  0.55507045  0.38529299  0.72487188    -0.14500
C738        C  0.56304438  0.41880764  0.72555107     0.07700
C739        C  0.54938309  0.43791267  0.75238005    -0.14500
C740        C  0.53027378  0.42330529  0.77884175    -0.14500
C741        C  0.52390495  0.38945556  0.77871999     0.07700
C742        C  0.53611192  0.37094211  0.75099068    -0.14500
H743        H  0.56439543  0.36952967  0.70453486     0.11600
H744        H  0.55449567  0.46374431  0.75371532     0.11600
H745        H  0.52228099  0.43804683  0.80064691     0.11600
H746        H  0.53268489  0.34473939  0.75069415     0.11600
C747        C  0.98114155  0.13557394  0.98636325    -0.14500
C748        C  0.00959026  0.12809258  0.96697182     0.07700
C749        C  0.52631011  0.13077170  0.98424083    -0.14500
C750        C  0.53026659  0.13129048  0.02063244    -0.14500
C751        C  0.50307520  0.13160685  0.04338961     0.07700
C752        C  0.98152089  0.13609488  0.02290706    -0.14500
H753        H  0.95788484  0.13922150  0.97335811     0.11600
H754        H  0.54753577  0.12785347  0.96780138     0.11600
H755        H  0.55482127  0.12907623  0.03089423     0.11600
H756        H  0.95890251  0.13995991  0.03683035     0.11600
C757        C  0.52654948  0.00016605  0.92390727    -0.14500
C758        C  0.00417234  0.00683156  0.90131069     0.07700
C759        C  0.96965004  0.48619193  0.92968723    -0.14500
C760        C  0.97900090  0.45332051  0.93191089    -0.14500
C761        C  0.51254105  0.43894752  0.90685225     0.07700
C762        C  0.53908751  0.45821818  0.89847454    -0.14500
H763        H  0.54549232  0.01794274  0.92005057     0.11600
H764        H  0.94399932  0.49281567  0.92971118     0.11600
H765        H  0.95995849  0.43540693  0.93409177     0.11600
H766        H  0.56203472  0.44715107  0.89063420     0.11600
C767        C  0.97613391  0.21766828  0.84331175    -0.14500
C768        C  0.00196645  0.19501263  0.84278116     0.07700
C769        C  0.50500608  0.19950430  0.82763466    -0.14500
C770        C  0.51248293  0.23269234  0.83014534    -0.14500
C771        C  0.48925587  0.25496345  0.84264016     0.07700
C772        C  0.98232603  0.25124889  0.84480155    -0.14500
H773        H  0.95120141  0.20944412  0.84377364     0.11600
H774        H  0.52417037  0.18284202  0.81937054     0.11600
H775        H  0.53670123  0.24071100  0.82346949     0.11600
H776        H  0.96156473  0.26781651  0.84634940     0.11600
C777        C  0.83978700  0.49906042  0.53028908    -0.14500
C778        C  0.84280859  0.46935427  0.54941883     0.07700
C779        C  0.84429514  0.44008885  0.53082313    -0.14500
C780        C  0.84507027  0.44071312  0.49418448    -0.14500
C781        C  0.84500186  0.47063280  0.47526359     0.07700
C782        C  0.84121547  0.49971272  0.49377673    -0.14500
H783        H  0.83830055  0.52228825  0.54357243     0.11600
H784        H  0.84659206  0.41689486  0.54450361     0.11600
H785        H  0.84774859  0.41762986  0.48079616     0.11600
H786        H  0.84088100  0.52304548  0.48021343     0.11600
C787        C  0.98619223  0.00725707  0.59254856    -0.14500
C788        C  0.96094383  0.47449525  0.61417560     0.07700
C789        C  0.97551926  0.44294222  0.61221307    -0.14500
C790        C  0.00927834  0.43888891  0.61217133    -0.14500
C791        C  0.52899322  0.46545320  0.59563632     0.07700
C792        C  0.51910622  0.49870361  0.59245380    -0.14500
H793        H  0.97930114  0.03278480  0.59514786     0.11600
H794        H  0.96096797  0.42114872  0.61385727     0.11600
H795        H  0.01982614  0.41451698  0.61432874     0.11600
H796        H  0.52873935  0.01976456  0.60902566     0.11600
C797        C  0.76408528  0.43469764  0.67749818    -0.14500
C798        C  0.77575919  0.46711803  0.67813260     0.07700
C799        C  0.75998521  0.01574104  0.66706443    -0.14500
C800        C  0.71962882  0.48636787  0.68029281    -0.14500
C801        C  0.70786958  0.45414208  0.67704756     0.07700
C802        C  0.73058748  0.42830870  0.67649343    -0.14500
H803        H  0.78087921  0.41411289  0.67569866     0.11600
H804        H  0.76764545  0.04022413  0.66048104     0.11600
H805        H  0.70962755  0.02868601  0.66164834     0.11600
H806        H  0.72256193  0.40336375  0.67388782     0.11600
C807        C  0.96833042  0.02526205  0.77121900    -0.14500
C808        C  0.96755249  0.05963436  0.77518079     0.07700
C809        C  0.94639497  0.07777908  0.75346746    -0.14500
C810        C  0.92652802  0.06256209  0.72888723    -0.14500
C811        C  0.92654201  0.02824130  0.72482994     0.07700
C812        C  0.94824502  0.00973113  0.74612995    -0.14500
H813        H  0.98329824  0.01031418  0.78860670     0.11600
H814        H  0.94410843  0.10400369  0.75663970     0.11600
H815        H  0.91054252  0.07812723  0.71325384     0.11600
H816        H  0.94945748  0.98340312  0.74369929     0.11600
O817        O  0.91117279  0.50501190  0.62829862    -0.75600
O818        O  0.82206999  0.50161616  0.66363812    -0.75600
O819        O  0.88327110  0.51322132  0.69153239    -0.75700
O820        O  0.85104423  0.49897389  0.60072254    -0.75700
O821        O  0.85775430  0.95836109  0.60343197    -0.75600
O822        O  0.89126584  0.45986475  0.70070489    -0.73200
O823        O  0.83720759  0.97079114  0.66998859    -0.75600
O824        O  0.91846621  0.96542377  0.62624703    -0.75700
Ni825      Ni  0.86652293  0.50665589  0.64604741     1.25400
Ni826      Ni  0.87852171  0.96767250  0.64869880     1.25400
C827        C  0.92690507  0.47749697  0.62599838     0.86600
C828        C  0.81104043  0.47318171  0.67204233     0.86500
C829        C  0.89497568  0.48991815  0.71008063     0.86600
C830        C  0.85100367  0.98155539  0.58117532     0.86700
O831        O  0.95547374  0.55386596  0.90571575    -0.75600
O832        O  0.94547569  0.63957451  0.86065246    -0.75600
O833        O  0.93575394  0.57504122  0.84135300    -0.75700
O834        O  0.95951807  0.61669853  0.92470859    -0.75700
O835        O  0.01194514  0.61569835  0.91031176    -0.75600
O836        O  0.98716359  0.57011694  0.82403495    -0.75600
O837        O  0.99687583  0.63447575  0.84317601    -0.75600
O838        O  0.00735839  0.55424518  0.88913477    -0.75700
Ni839      Ni  0.94707720  0.59642895  0.88324601     1.25400
Ni840      Ni  0.00258760  0.59381054  0.86570083     1.25400
C841        C  0.98441561  0.54093323  0.90570159     0.86600
C842        C  0.97124415  0.65187802  0.84678155     0.86500
C843        C  0.95665151  0.56326566  0.82021311     0.86600
C844        C  0.98902909  0.62164305  0.93268416     0.86700
O845        O  0.57896604  0.93663048  0.62813749    -0.75600
O846        O  0.66877330  0.94129512  0.66224817    -0.75600
O847        O  0.60754070  0.93056593  0.69146074    -0.75700
O848        O  0.63860671  0.94183616  0.59948729    -0.75700
O849        O  0.63496181  0.99601805  0.60317572    -0.75600
O850        O  0.59932507  0.98413892  0.69750351    -0.75600
O851        O  0.66068655  0.99475367  0.66896889    -0.75600
O852        O  0.57623421  0.99084112  0.63226689    -0.75700
Ni853      Ni  0.62388127  0.93561595  0.64546918     1.25400
Ni854      Ni  0.61791389  0.99333622  0.65099961     1.25400
C855        C  0.56321910  0.96404138  0.62430533     0.86600
C856        C  0.67983635  0.97003413  0.66894566     0.86500
C857        C  0.59542752  0.95442004  0.70842206     0.86600
C858        C  0.64068076  0.96988105  0.58525284     0.86700
O859        O  0.54569513  0.89713242  0.90711740    -0.75600
O860        O  0.54724462  0.81004120  0.86513626    -0.75600
O861        O  0.55729034  0.87390035  0.84209091    -0.75700
O862        O  0.54153407  0.83499074  0.92975433    -0.75700
O863        O  0.48789099  0.83769824  0.92146352    -0.75600
O864        O  0.50443632  0.88057124  0.83077535    -0.75600
O865        O  0.49437730  0.81692007  0.85401110    -0.75600
O866        O  0.49225325  0.89837160  0.89705165    -0.75700
Ni867      Ni  0.54992147  0.85372660  0.88595957     1.25400
Ni868      Ni  0.49289590  0.85823611  0.87508756     1.25400
C869        C  0.51740878  0.91122119  0.90986731     0.86600
C870        C  0.51962704  0.79860543  0.85482640     0.86500
C871        C  0.53457876  0.88638183  0.82330548     0.86600
C872        C  0.51289423  0.83165797  0.94139854     0.86700
O873        O  0.54426729  0.56224811  0.12290517    -0.75600
O874        O  0.53744898  0.65157740  0.15827007    -0.75600
O875        O  0.54845464  0.58976916  0.18645868    -0.75700
O876        O  0.53854231  0.62271211  0.09448592    -0.75700
O877        O  0.48456976  0.61920579  0.09734690    -0.75600
O878        O  0.49501700  0.58255684  0.19170640    -0.75600
O879        O  0.48407308  0.64433570  0.16332581    -0.75600
O880        O  0.49021933  0.56011077  0.12645119    -0.75700
Ni881      Ni  0.54413100  0.60700986  0.14061580     1.25400
Ni882      Ni  0.48657255  0.60172970  0.14513895     1.25400
C883        C  0.51729087  0.54687174  0.11867260     0.86600
C884        C  0.50859321  0.66281487  0.16528233     0.86500
C885        C  0.52447355  0.57806536  0.20306321     0.86600
C886        C  0.51078183  0.62458148  0.07970919     0.86700
O887        O  0.57871086  0.52010101  0.40192482    -0.75600
O888        O  0.66609933  0.52611950  0.36203943    -0.75600
O889        O  0.60259745  0.53650022  0.33836226    -0.75700
O890        O  0.64043158  0.51524933  0.42562792    -0.75700
O891        O  0.64061685  0.94861539  0.41460538    -0.75600
O892        O  0.59892805  0.48422651  0.32358592    -0.75600
O893        O  0.66673917  0.95558976  0.34926755    -0.75600
O894        O  0.58205667  0.95457464  0.38472478    -0.75700
Ni895      Ni  0.62214258  0.52649381  0.38209331     1.25400
Ni896      Ni  0.62392142  0.95452771  0.36668831     1.25400
C897        C  0.56586538  0.49144529  0.40232707     0.86600
C898        C  0.67895829  0.49948685  0.34990385     0.86500
C899        C  0.59186625  0.51475810  0.31787293     0.86600
C900        C  0.64551226  0.97341051  0.43465590     0.86700
O901        O  0.92169728  0.93477249  0.40081253    -0.75600
O902        O  0.83572453  0.93235478  0.35700238    -0.75600
O903        O  0.89985040  0.92231313  0.33572273    -0.75700
O904        O  0.85935378  0.93927394  0.42180405    -0.75700
O905        O  0.85998638  0.99302077  0.41259642    -0.75600
O906        O  0.90472208  0.97530741  0.32375259    -0.75600
O907        O  0.84060403  0.98530339  0.34481258    -0.75600
O908        O  0.92124224  0.98838571  0.39026512    -0.75700
Ni909      Ni  0.87894299  0.93021923  0.37882251     1.25400
Ni910      Ni  0.88146088  0.98737562  0.36707673     1.25400
C911        C  0.93493610  0.96310925  0.40326750     0.86600
C912        C  0.82328140  0.95986866  0.34619834     0.86500
C913        C  0.91169091  0.94501972  0.31698954     0.86600
C914        C  0.85443589  0.96811948  0.43270254     0.86700
O915        O  0.97072245  0.89793896  0.12245536    -0.75600
O916        O  0.96653279  0.80920709  0.16120160    -0.75600
O917        O  0.95838368  0.87251610  0.18616631    -0.75700
O918        O  0.97323657  0.83621311  0.09741513    -0.75700
O919        O  0.52274360  0.83933753  0.11245745    -0.75600
O920        O  0.01157263  0.87535049  0.19709587    -0.75600
O921        O  0.01955247  0.81252548  0.17239406    -0.75600
O922        O  0.02426015  0.89542807  0.13163313    -0.75700
Ni923      Ni  0.96523797  0.85381792  0.14171511     1.25400
Ni924      Ni  0.02241522  0.85431764  0.15227188     1.25400
C925        C  0.99921178  0.91092658  0.12087360     0.86600
C926        C  0.99377247  0.79583643  0.17135739     0.86500
C927        C  0.98167992  0.88234664  0.20516197     0.86600
C928        C  0.00167117  0.83045100  0.08583874     0.86700
C929        C  0.93546068  0.94768156  0.25544850    -0.14500
C930        C  0.93509501  0.93414803  0.28920539     0.07700
C931        C  0.95533917  0.90645055  0.29603492    -0.14500
C932        C  0.97357539  0.89129888  0.26950788    -0.14500
C933        C  0.97203805  0.90333315  0.23523594     0.07700
C934        C  0.95340762  0.93217234  0.22871797    -0.14500
H935        H  0.92019162  0.96874006  0.24914735     0.11600
H936        H  0.95588570  0.89546664  0.32187634     0.11600
H937        H  0.98688481  0.86882463  0.27528268     0.11600
H938        H  0.95120378  0.94162773  0.20228624     0.11600
C939        C  0.52101193  0.94400058  0.40800775    -0.14500
C940        C  0.53422187  0.97579413  0.40787961     0.07700
C941        C  0.51033985  0.50906768  0.42224012    -0.14500
C942        C  0.97759983  0.00083698  0.42376795    -0.14500
C943        C  0.96749696  0.96833821  0.41824174     0.07700
C944        C  0.48747135  0.93949685  0.40958520    -0.14500
H945        H  0.53632940  0.92259303  0.40391190     0.11600
H946        H  0.02310733  0.52656746  0.41570973     0.11600
H947        H  0.96472435  0.51893949  0.42052046     0.11600
H948        H  0.47781737  0.91529002  0.40586852     0.11600
C949        C  0.73646152  0.52040230  0.34882773    -0.14500
C950        C  0.71944793  0.97623493  0.34236869     0.07700
C951        C  0.73268667  0.94410583  0.34077841    -0.14500
C952        C  0.76639365  0.93837336  0.33961742    -0.14500
C953        C  0.78778186  0.96461433  0.33918921     0.07700
C954        C  0.77441852  0.99675670  0.33787160    -0.14500
H955        H  0.72782666  0.54468902  0.35551619     0.11600
H956        H  0.71707305  0.92308749  0.34251347     0.11600
H957        H  0.77569150  0.91347229  0.34076225     0.11600
H958        H  0.78621444  0.53309106  0.35619954     0.11600
C959        C  0.54124279  0.98887368  0.09918592    -0.14500
C960        C  0.51543113  0.51263389  0.10728637     0.07700
C961        C  0.98379279  0.50137340  0.09040752    -0.14500
C962        C  0.97914074  0.96613488  0.10087184    -0.14500
C963        C  0.00488481  0.94489124  0.10934742     0.07700
C964        C  0.53357358  0.95584055  0.10124936    -0.14500
H965        H  0.56611806  0.99624875  0.10365444     0.11600
H966        H  0.96395598  0.51897032  0.08735174     0.11600
H967        H  0.95461025  0.95717362  0.09802525     0.11600
H968        H  0.55330782  0.93850517  0.10617098     0.11600
C969        C  0.51914435  0.75266515  0.18729814    -0.14500
C970        C  0.99805666  0.76014090  0.17862553     0.07700
C971        C  0.97235811  0.73828381  0.17556816    -0.14500
C972        C  0.97875235  0.70450132  0.17473894    -0.14500
C973        C  0.50167567  0.69782027  0.17351486     0.07700
C974        C  0.52615944  0.71920071  0.18358589    -0.14500
H975        H  0.53911526  0.76854316  0.19368603     0.11600
H976        H  0.94761407  0.74726743  0.17196742     0.11600
H977        H  0.95841492  0.68842309  0.17066368     0.11600
H978        H  0.55086656  0.71026375  0.18758874     0.11600
C979        C  0.56759003  0.51199304  0.25631934    -0.14500
C980        C  0.56961003  0.52679846  0.28916459     0.07700
C981        C  0.55120615  0.55587033  0.29455770    -0.14500
C982        C  0.53326511  0.57099094  0.26744674    -0.14500
C983        C  0.53299507  0.55743190  0.23406576     0.07700
C984        C  0.54979523  0.52740244  0.22898191    -0.14500
H985        H  0.58130789  0.48975270  0.25115200     0.11600
H986        H  0.55172379  0.56781141  0.31968667     0.11600
H987        H  0.52149435  0.59443897  0.27198369     0.11600
H988        H  0.55078903  0.51688062  0.20312865     0.11600
C989        C  0.97389935  0.81682835  0.99264610    -0.14500
C990        C  0.51039304  0.82385589  0.97938835     0.07700
C991        C  0.53832088  0.82690384  0.00100734    -0.14500
C992        C  0.53584942  0.82712969  0.03751345    -0.14500
C993        C  0.00354272  0.82110174  0.04826439     0.07700
C994        C  0.97423202  0.81710369  0.02920566    -0.14500
H995        H  0.95078149  0.81598361  0.97899263     0.11600
H996        H  0.56196567  0.83157308  0.98976110     0.11600
H997        H  0.55718931  0.83236854  0.05308747     0.11600
H998        H  0.95100661  0.81634879  0.04245627     0.11600
C999        C  0.64390303  0.94128877  0.52764486    -0.14500
C1000       C  0.64761752  0.97033007  0.54706209     0.07700
C1001       C  0.65547795  0.99899839  0.52908853    -0.14500
C1002       C  0.65783353  0.99896440  0.49255086    -0.14500
C1003       C  0.65165464  0.97044966  0.47296627     0.07700
C1004       C  0.64570221  0.94137962  0.49110873    -0.14500
H1005       H  0.63780277  0.91856036  0.54055358     0.11600
H1006       H  0.65877293  0.02159777  0.54309235     0.11600
H1007       H  0.64948897  0.53235196  0.48590366     0.11600
H1008       H  0.64053354  0.91917374  0.47707780     0.11600
C1009       C  0.54538293  0.92928845  0.73433154    -0.14500
C1010       C  0.57522554  0.94555147  0.73941361     0.07700
C1011       C  0.58894598  0.94485153  0.77289990    -0.14500
C1012       C  0.57426594  0.92707489  0.80001952    -0.14500
C1013       C  0.54542043  0.90919502  0.79467299     0.07700
C1014       C  0.53038630  0.91165830  0.76172267    -0.14500
H1015       H  0.53463913  0.92862737  0.70846430     0.11600
H1016       H  0.61220776  0.95618335  0.77755336     0.11600
H1017       H  0.58645452  0.92615902  0.82515426     0.11600
H1018       H  0.50836363  0.89830667  0.75647802     0.11600
C1019       C  0.96795761  0.63480679  0.99243226    -0.14500
C1020       C  0.99496272  0.63111998  0.96970852     0.07700
C1021       C  0.53900756  0.62439359  0.98513128    -0.14500
C1022       C  0.53949944  0.62555057  0.02178960    -0.14500
C1023       C  0.51047299  0.63013762  0.04118445     0.07700
C1024       C  0.97187197  0.63453036  0.02880294    -0.14500
H1025       H  0.94331829  0.63556440  0.98224257     0.11600
H1026       H  0.56125135  0.61860359  0.97124101     0.11600
H1027       H  0.56248060  0.62078891  0.03499302     0.11600
H1028       H  0.95052141  0.63494045  0.04531031     0.11600
C1029       C  0.53496858  0.49199547  0.89598986    -0.14500
C1030       C  0.99315714  0.50942875  0.92249782     0.07700
C1031       C  0.97871576  0.98789381  0.91380905    -0.14500
C1032       C  0.98307322  0.95408589  0.91702201    -0.14500
C1033       C  0.51167831  0.94365340  0.92534636     0.07700
C1034       C  0.53574926  0.96721746  0.92461057    -0.14500
H1035       H  0.55557441  0.50597393  0.88715078     0.11600
H1036       H  0.95504082  0.99881154  0.91897899     0.11600
H1037       H  0.96227190  0.93965673  0.92439685     0.11600
H1038       H  0.56101780  0.96038698  0.92040239     0.11600
C1039       C  0.95050425  0.71005196  0.84904146    -0.14500
C1040       C  0.97439569  0.68738254  0.83874871     0.07700
C1041       C  0.53411930  0.70723880  0.84245866    -0.14500
C1042       C  0.54033010  0.74079404  0.84479849    -0.14500
C1043       C  0.51449827  0.76338292  0.84668683     0.07700
C1044       C  0.95774337  0.74336575  0.85065863    -0.14500
H1045       H  0.92699678  0.70189250  0.85801775     0.11600
H1046       H  0.55484044  0.69054141  0.84230417     0.11600
H1047       H  0.56526360  0.74890580  0.84632720     0.11600
H1048       H  0.93916153  0.75997529  0.86039299     0.11600
C1049       C  0.83487585  0.00303560  0.52193273    -0.14500
C1050       C  0.84220315  0.97583938  0.54398280     0.07700
C1051       C  0.84769806  0.94546378  0.52857222    -0.14500
C1052       C  0.84890146  0.94295524  0.49217110    -0.14500
C1053       C  0.84526757  0.97085850  0.47019599     0.07700
C1054       C  0.83688521  0.00069576  0.48547995    -0.14500
H1055       H  0.83003963  0.02692736  0.53289622     0.11600
H1056       H  0.85350341  0.92416278  0.54451837     0.11600
H1057       H  0.85515025  0.91929032  0.48143438     0.11600
H1058       H  0.83353363  0.02246045  0.46950355     0.11600
C1059       C  0.98045322  0.50183063  0.61041137    -0.14500
C1060       C  0.96292624  0.98295047  0.59478427     0.07700
C1061       C  0.97284938  0.94991798  0.59028956    -0.14500
C1062       C  0.00579152  0.94093455  0.59133507    -0.14500
C1063       C  0.52884230  0.96653810  0.61319433     0.07700
C1064       C  0.51415025  0.99795521  0.60952278    -0.14500
H1065       H  0.96995302  0.52626966  0.61110299     0.11600
H1066       H  0.95511529  0.93060126  0.59046421     0.11600
H1067       H  0.01265830  0.91528934  0.59287926     0.11600
H1068       H  0.53674580  0.51803144  0.59418050     0.11600
C1069       C  0.77172717  0.95906707  0.68093971    -0.14500
C1070       C  0.78312423  0.99082847  0.67309904     0.07700
C1071       C  0.75303910  0.49278854  0.68037292    -0.14500
C1072       C  0.72660464  0.00888609  0.66766061    -0.14500
C1073       C  0.71527902  0.97678938  0.67363055     0.07700
C1074       C  0.73832622  0.95206098  0.68076812    -0.14500
H1075       H  0.78874298  0.93898212  0.68548471     0.11600
H1076       H  0.76100653  0.51788163  0.68082778     0.11600
H1077       H  0.70295806  0.50713338  0.68061955     0.11600
H1078       H  0.73062724  0.92721087  0.68534615     0.11600
C1079       C  0.91208531  0.52756765  0.79741448    -0.14500
C1080       C  0.94367598  0.54037461  0.79293746     0.07700
C1081       C  0.96095200  0.53108602  0.76287344    -0.14500
C1082       C  0.94610438  0.51142581  0.73722636    -0.14500
C1083       C  0.91402128  0.49990058  0.74136912     0.07700
C1084       C  0.89751401  0.50791135  0.77207464    -0.14500
H1085       H  0.89790015  0.53355357  0.82033180     0.11600
H1086       H  0.98520665  0.54018492  0.75841196     0.11600
H1087       H  0.95900986  0.50677647  0.71310531     0.11600
H1088       H  0.87247906  0.50062369  0.77554057     0.11600
loop_ 
_geom_bond_atom_site_label_1 
_geom_bond_atom_site_label_2 
_geom_bond_distance 
_geom_bond_site_symmetry_2 
_ccdc_geom_bond_type 
O1           Ni9   1.958       .  S
O1           C11   1.293   1_545  A
O2           Ni9   1.962       .  S
O2           C12   1.294   1_545  A
O3           Ni9   1.893       .  S
O3           C13   1.271   1_545  A
O4           Ni9   1.877   1_565  S
O4          C286   1.270       .  A
O5          Ni10   1.971       .  S
O5           C14   1.296       .  A
O6         Ni282   1.975       .  S
O6           C13   1.295       .  A
O7          Ni10   1.888       .  S
O7          C284   1.272       .  A
O8          Ni10   1.856       .  S
O8          C283   1.266       .  A
Ni9        Ni282   2.383   1_545  S
Ni10        O278   1.986       .  S
Ni10       Ni281   2.379       .  S
C11         O280   1.266       .  A
C11         C516   1.475       .  S
C12         O279   1.271       .  A
C12         C526   1.493       .  S
C13         C267   1.491   1_565  S
C14         O276   1.268       .  A
C14         C234   1.489       .  S
O15         Ni23   1.961       .  S
O15          C25   1.293       .  A
O16         Ni23   1.960       .  S
O16          C26   1.293       .  A
O17         Ni23   1.894       .  S
O17          C27   1.274       .  A
O18         Ni23   1.870       .  S
O18          C28   1.268       .  A
O19         Ni24   1.974       .  S
O19          C28   1.297       .  A
O20         Ni24   1.980       .  S
O20          C27   1.296       .  A
O21         Ni24   1.879       .  S
O21          C26   1.270       .  A
O22         Ni24   1.852       .  S
O22          C25   1.266       .  A
Ni23        Ni24   2.380       .  S
C25         C214   1.475       .  S
C26         C224   1.490       .  S
C27         C264   1.510       .  S
C28         C204   1.493       .  S
O29         Ni37   1.957       .  S
O29          C39   1.293       .  A
O30         Ni37   1.968       .  S
O30          C40   1.295       .  A
O31         Ni37   1.898       .  S
O31          C41   1.273       .  A
O32         Ni37   1.881       .  S
O32          C42   1.271       .  A
O33         Ni38   1.966       .  S
O33          C42   1.294       .  A
O34         Ni38   1.976       .  S
O34          C41   1.295       .  A
O35         Ni38   1.885       .  S
O35          C40   1.271       .  A
O36         Ni38   1.857       .  S
O36          C39   1.266       .  A
Ni37        Ni38   2.382       .  S
C39         C247   1.474       .  S
C40         C257   1.496       .  S
C41         C194   1.496       .  S
C42         C184   1.491       .  S
O43         Ni51   1.964       .  S
O43          C53   1.294       .  A
O44         Ni51   1.968       .  S
O44          C54   1.295       .  A
O45         Ni51   1.893       .  S
O45          C55   1.273       .  A
O46         Ni51   1.874       .  S
O46          C56   1.268       .  A
O47         Ni52   1.971       .  S
O47          C56   1.296   1_655  A
O48         Ni52   1.983   1_455  S
O48          C55   1.297       .  A
O49         Ni52   1.880       .  S
O49          C54   1.270   1_655  A
O50         Ni52   1.851       .  S
O50          C53   1.265   1_655  A
Ni51        Ni52   2.381   1_455  S
C53         C217   1.474       .  S
C54         C227   1.495       .  S
C55         C197   1.507       .  S
C56         C174   1.491       .  S
O57         Ni65   1.958       .  S
O57          C67   1.293       .  A
O58         Ni65   1.966       .  S
O58          C68   1.294       .  A
O59         Ni65   1.893       .  S
O59          C69   1.272       .  A
O60         Ni65   1.886       .  S
O60          C70   1.271       .  A
O61         Ni66   1.960       .  S
O61          C70   1.294   1_655  A
O62         Ni66   1.969       .  S
O62          C69   1.294   1_655  A
O63         Ni66   1.884       .  S
O63          C68   1.271   1_655  A
O64         Ni66   1.857       .  S
O64          C67   1.267   1_655  A
Ni65        Ni66   2.384   1_455  S
C67         C144   1.474       .  S
C68         C157   1.492       .  S
C69         C167   1.488       .  S
C70         C207   1.491       .  S
O71         Ni79   1.962       .  S
O71          C81   1.293   1_545  A
O72         Ni79   1.964       .  S
O72          C82   1.294   1_545  A
O73         Ni79   1.893       .  S
O73          C83   1.274       .  A
O74         Ni79   1.876       .  S
O74         C356   1.269   1_545  A
O75         Ni80   1.968       .  S
O75          C84   1.295       .  A
O76        Ni352   1.975       .  S
O76          C83   1.295   1_565  A
O77         Ni80   1.884       .  S
O77         C354   1.271       .  A
O78         Ni80   1.855       .  S
O78         C353   1.266       .  A
Ni79       Ni352   2.381   1_545  S
Ni80        O348   1.975       .  S
Ni80       Ni351   2.383       .  S
C81         O350   1.266       .  A
C81         C396   1.475       .  S
C82         O349   1.270       .  A
C82         C406   1.492       .  S
C83         C164   1.502       .  S
C84         O346   1.270       .  A
C84         C187   1.491       .  S
O85         Ni93   1.956       .  S
O85          C95   1.292       .  A
O86         Ni93   1.959       .  S
O86          C96   1.293       .  A
O87         Ni93   1.891       .  S
O87          C97   1.273       .  A
O88         Ni93   1.872       .  S
O88          C98   1.269       .  A
O89         Ni94   1.970       .  S
O89          C98   1.296       .  A
O90         Ni94   1.980       .  S
O90          C97   1.296       .  A
O91         Ni94   1.882       .  S
O91          C96   1.271       .  A
O92         Ni94   1.857       .  S
O92          C95   1.267       .  A
Ni93        Ni94   2.382       .  S
C95         C127   1.472       .  S
C96         C137   1.491       .  S
C97         C114   1.502       .  S
C98         C237   1.490       .  S
O99        Ni107   1.961       .  S
O99         C109   1.294       .  A
O100       Ni107   1.966       .  S
O100        C110   1.294       .  A
O101       Ni107   1.892       .  S
O101        C111   1.272       .  A
O102       Ni107   1.877       .  S
O102        C112   1.270       .  A
O103       Ni652   1.972       .  S
O103        C656   1.296   1_455  A
O104       Ni108   1.976       .  S
O104        C111   1.295       .  A
O105       Ni108   1.875       .  S
O105        C110   1.269       .  A
O106       Ni108   1.855       .  S
O106        C109   1.265       .  A
Ni107      Ni108   2.381       .  S
Ni108       O647   1.972       .  S
C109        C147   1.477       .  S
C110        C154   1.492       .  S
C111        C117   1.493       .  S
C112        O647   1.295       .  A
C112        C177   1.494       .  S
C113        C114   1.402       .  A
C113        C118   1.413       .  A
C113        H119   1.083       .  S
C114        C115   1.417       .  A
C115        C116   1.407       .  A
C115        H120   1.083       .  S
C116        C117   1.399       .  A
C116        H121   1.083       .  S
C117        C118   1.416       .  A
C118        H122   1.083       .  S
C123        C124   1.417       .  A
C123        C128   1.394   1_455  A
C123        H129   1.083       .  S
C124        C353   1.475       .  S
C124        C397   1.393       .  A
C125        C396   1.394   1_545  A
C125        C942   1.396   1_455  A
C125        H674   1.083       .  S
C126        C127   1.417       .  A
C126        C941   1.396       .  A
C126        H403   1.084       .  S
C127        C672   1.392       .  A
C128        C671   1.393       .  A
C128        H132   1.083       .  S
H130        C669   1.083       .  S
H131        C398   1.083   1_545  S
C133        C406   1.398   1_545  A
C133        C410   1.402       .  A
C133        H139   1.083       .  S
C134        C354   1.491       .  S
C134        C135   1.417       .  A
C134        C405   1.398       .  A
C135        C136   1.401       .  A
C135        H140   1.083       .  S
C136        C137   1.398       .  A
C136        H141   1.083       .  S
C137        C138   1.418       .  A
C138        C405   1.402       .  A
C138        H414   1.083       .  S
H142        C410   1.083       .  S
C143        C148   1.394       .  A
C143        C416   1.392       .  A
C143        H149   1.083       .  S
C144        C415   1.393   1_545  A
C144        C689   1.416   1_445  A
C145        C688   1.416       .  A
C145        C418   1.395   1_545  A
C145        H150   1.084       .  S
C146        C147   1.394       .  A
C146        C417   1.395       .  A
C146        H151   1.083       .  S
C147        C692   1.418       .  A
C148        C691   1.417       .  A
C148        H152   1.083       .  S
C153        C158   1.403       .  A
C153        C698   1.418   1_455  A
C153        H159   1.083       .  S
C154        C155   1.399       .  A
C154        C697   1.418       .  A
C155        C156   1.404       .  A
C155        H160   1.083       .  S
C156        C701   1.417       .  A
C156        H161   1.083       .  S
C157        C158   1.398       .  A
C157        C700   1.416   1_455  A
C158        H162   1.083       .  S
C163        C164   1.403       .  A
C163        C168   1.413       .  A
C163        H169   1.083   1_545  S
C164        C165   1.416       .  A
C165        C166   1.404       .  A
C165        H170   1.083       .  S
C166        C167   1.398       .  A
C166        H171   1.083       .  S
C167        C168   1.415       .  A
C168        H172   1.083       .  S
C173        C178   1.400   1_556  A
C173        C718   1.398       .  A
C173        H179   1.083       .  S
C174        C175   1.419   1_556  A
C174        C717   1.396   1_455  A
C175        C176   1.402       .  A
C175        H180   1.083   1_554  S
C176        C721   1.397       .  A
C176        H181   1.083       .  S
C177        C178   1.417       .  A
C177        C720   1.400       .  A
C178        H182   1.083       .  S
C183        C184   1.417       .  A
C183        C188   1.401       .  A
C183        H189   1.083       .  S
C184        C185   1.398       .  A
C185        C186   1.403       .  A
C185        H190   1.083       .  S
C186        C187   1.418       .  A
C186        H463   1.083       .  S
C187        C188   1.398       .  A
C188        H192   1.083       .  S
H191        C458   1.083       .  S
C193        C194   1.417       .  A
C193        C198   1.416       .  A
C193        H199   1.083       .  S
C194        C195   1.398       .  A
C195        C196   1.406       .  A
C195        H200   1.083       .  S
C196        C197   1.417       .  A
C196        H201   1.083       .  S
C197        C198   1.405       .  A
C198        H202   1.083       .  S
C203        C204   1.419       .  A
C203        C208   1.401   1_556  A
C203        H209   1.083       .  S
C204        C749   1.397       .  A
C205        C206   1.405   1_556  A
C205        C748   1.399       .  A
C205        H210   1.083       .  S
C206        C207   1.418       .  A
C206        H211   1.083       .  S
C207        C752   1.397   1_455  A
C208        C751   1.396       .  A
C208        H212   1.083       .  S
C213        C758   1.417   1_565  A
C213        C490   1.392       .  A
C213        H219   1.083   1_565  S
C214        C757   1.418       .  A
C214        C487   1.392   1_545  A
C215        C216   1.396       .  A
C215        C486   1.395       .  A
C215        H220   1.083       .  S
C216        C761   1.415       .  A
C216        H221   1.083       .  S
C217        C218   1.392       .  A
C217        C760   1.418   1_455  A
C218        C485   1.394       .  A
C218        H222   1.083       .  S
C223        C224   1.400       .  A
C223        C228   1.402       .  A
C223        H229   1.083       .  S
C224        C769   1.417       .  A
C225        C226   1.404       .  A
C225        C768   1.418       .  A
C225        H230   1.083       .  S
C226        C227   1.398       .  A
C226        H231   1.083       .  S
C227        C772   1.419   1_455  A
C228        C771   1.414       .  A
C228        H232   1.083       .  S
C233        C234   1.419       .  A
C233        C238   1.403       .  A
C233        H239   1.083       .  S
C234        C235   1.396       .  A
C235        C236   1.399       .  A
C235        H240   1.083       .  S
C236        C237   1.418       .  A
C236        H241   1.083       .  S
C237        C238   1.397       .  A
C238        H242   1.083       .  S
C243        C516   1.393   1_545  A
C243       C1064   1.394   1_545  A
C243        H249   1.083       .  S
C244        C283   1.475       .  S
C244        C245   1.418       .  A
C244        C515   1.392       .  A
C245        C246   1.396       .  A
C245        H250   1.083       .  S
C246        C791   1.393       .  A
C246        H251   1.083       .  S
C247        C248   1.417       .  A
C247        C790   1.393       .  A
C248       C1059   1.394   1_455  A
C248        H524   1.083       .  S
H252        C520   1.083   1_545  S
C253        C254   1.418       .  A
C253        C258   1.406       .  A
C253        H259   1.083       .  S
C254        C284   1.497       .  S
C254        C527   1.400       .  A
C255        C526   1.397       .  A
C255        C528   1.401       .  A
C255        H260   1.083   1_565  S
C256        C257   1.417       .  A
C256        C527   1.404       .  A
C256        H533   1.083       .  S
C257        C258   1.399       .  A
C258        H262   1.083       .  S
H261        C528   1.083   1_545  S
C263        C264   1.417       .  A
C263        C268   1.404       .  A
C263        H269   1.083       .  S
C264        C265   1.406       .  A
C265        C266   1.417       .  A
C265        H270   1.082       .  S
C266        C267   1.415       .  A
C266        H271   1.083       .  S
C267        C268   1.398       .  A
C268        H272   1.083       .  S
O273       Ni281   1.963       .  S
O273        C283   1.293       .  A
O274       Ni281   1.962       .  S
O274        C284   1.294       .  A
O275       Ni281   1.893       .  S
O275        C285   1.274       .  A
O276       Ni281   1.870       .  S
O277       Ni282   1.967       .  S
O277        C286   1.295       .  A
O278        C285   1.297       .  A
O279       Ni282   1.885       .  S
O280       Ni282   1.856       .  S
C285        C539   1.516       .  S
C286        C506   1.492       .  S
O287       Ni295   1.962       .  S
O287        C297   1.294       .  A
O288       Ni295   1.964       .  S
O288        C298   1.294       .  A
O289       Ni295   1.894       .  S
O289        C299   1.272       .  A
O290       Ni295   1.874       .  S
O290        C300   1.269       .  A
O291       Ni296   1.974       .  S
O291        C300   1.296       .  A
O292       Ni296   1.981       .  S
O292        C299   1.296       .  A
O293       Ni296   1.885       .  S
O293        C298   1.271       .  A
O294       Ni296   1.856       .  S
O294        C297   1.266       .  A
Ni295      Ni296   2.380       .  S
C297        C486   1.477       .  S
C298        C496   1.494       .  S
C299        C536   1.498       .  S
C300        C476   1.493       .  S
O301       Ni309   1.964       .  S
O301        C311   1.294       .  A
O302       Ni309   1.965       .  S
O302        C312   1.294       .  A
O303       Ni309   1.896       .  S
O303        C313   1.275       .  A
O304       Ni309   1.875       .  S
O304        C314   1.269       .  A
O305       Ni310   1.970       .  S
O305        C314   1.296       .  A
O306       Ni310   1.978       .  S
O306        C313   1.295       .  A
O307       Ni310   1.880       .  S
O307        C312   1.270       .  A
O308       Ni310   1.854       .  S
O308        C311   1.266       .  A
Ni309      Ni310   2.379       .  S
C311        C519   1.476       .  S
C312        C529   1.493       .  S
C313        C466   1.511       .  S
C314        C456   1.492       .  S
O315       Ni323   1.953       .  S
O315        C325   1.292       .  A
O316       Ni323   1.956       .  S
O316        C326   1.292   1_455  A
O317       Ni323   1.895       .  S
O317        C327   1.273       .  A
O318       Ni323   1.890       .  S
O318        C328   1.273       .  A
O319       Ni324   1.959       .  S
O319        C328   1.293   1_655  A
O320       Ni324   1.971       .  S
O320        C327   1.294   1_655  A
O321       Ni324   1.887       .  S
O321        C326   1.272       .  A
O322       Ni324   1.862       .  S
O322        C325   1.268   1_655  A
Ni323      Ni324   2.384   1_455  S
C325        C489   1.471       .  S
C326        C499   1.486       .  S
C327        C469   1.490       .  S
C328        C446   1.492       .  S
O329       Ni337   1.959       .  S
O329        C339   1.292       .  A
O330       Ni337   1.957       .  S
O330        C340   1.293       .  A
O331       Ni337   1.888       .  S
O331        C341   1.274       .  A
O332       Ni337   1.875       .  S
O332        C342   1.269       .  A
O333       Ni338   1.970       .  S
O333        C342   1.296   1_655  A
O334       Ni338   1.983   1_455  S
O334        C341   1.296       .  A
O335       Ni338   1.886       .  S
O335        C340   1.271   1_655  A
O336       Ni338   1.853       .  S
O336        C339   1.266   1_655  A
Ni337      Ni338   2.381   1_455  S
C339        C416   1.471       .  S
C340        C429   1.488       .  S
C341        C439   1.511       .  S
C342        C479   1.492       .  S
O343       Ni351   1.960       .  S
O343        C353   1.293       .  A
O344       Ni351   1.961       .  S
O344        C354   1.293       .  A
O345       Ni351   1.889       .  S
O345        C355   1.272       .  A
O346       Ni351   1.878       .  S
O347       Ni352   1.969       .  S
O347        C356   1.296       .  A
O348        C355   1.294       .  A
O349       Ni352   1.877       .  S
O350       Ni352   1.853       .  S
C355        C436   1.491       .  S
C356        C459   1.492       .  S
O357       Ni365   1.958       .  S
O357        C367   1.293       .  A
O358       Ni365   1.963       .  S
O358        C368   1.294       .  A
O359       Ni365   1.893       .  S
O359        C369   1.272       .  A
O360       Ni365   1.885       .  S
O360        C370   1.271       .  A
O361       Ni366   1.961       .  S
O361        C370   1.294       .  A
O362       Ni366   1.970       .  S
O362        C369   1.294       .  A
O363       Ni366   1.881       .  S
O363        C368   1.270       .  A
O364       Ni366   1.855       .  S
O364        C367   1.266       .  A
Ni365      Ni366   2.383       .  S
C367        C399   1.474       .  S
C368        C409   1.489       .  S
C369        C386   1.489       .  S
C370        C509   1.490       .  S
O371       Ni379   1.959       .  S
O371        C381   1.293       .  A
O372       Ni379   1.958       .  S
O372        C382   1.293       .  A
O373       Ni379   1.893       .  S
O373        C383   1.274       .  A
O374       Ni379   1.868       .  S
O374        C384   1.268       .  A
O375       Ni924   1.972       .  S
O375        C928   1.295       .  A
O376       Ni380   1.979       .  S
O376        C383   1.296       .  A
O377       Ni380   1.884       .  S
O377        C382   1.271       .  A
O378       Ni380   1.858       .  S
O378        C381   1.267       .  A
Ni379      Ni380   2.381       .  S
Ni380       O919   1.972       .  S
C381        C419   1.475       .  S
C382        C426   1.493       .  S
C383        C389   1.507       .  S
C384        O919   1.296       .  A
C384        C449   1.490       .  S
C385        C386   1.398       .  A
C385        C390   1.402       .  A
C385        H391   1.083       .  S
C386        C387   1.415       .  A
C387        C388   1.416       .  A
C387        H392   1.084       .  S
C388        C389   1.406       .  A
C388        H393   1.083       .  S
C389        C390   1.417       .  A
C390        H394   1.083       .  S
C395        C396   1.417       .  A
C395        C400   1.393   1_455  A
C395        H401   1.083       .  S
C397        C670   1.394   1_455  A
C397        H946   1.083       .  S
C398        C669   1.394   1_565  A
C398        C399   1.417       .  A
C399        C944   1.393       .  A
C400        C943   1.392       .  A
C400        H404   1.083       .  S
H402        C941   1.083       .  S
C405        H411   1.083       .  S
C406        C407   1.418       .  A
C407        C408   1.401       .  A
C407        H412   1.083       .  S
C408        C409   1.397       .  A
C408        H413   1.083       .  S
C409        C410   1.417   1_565  A
C415        C420   1.394       .  A
C415        H421   1.083   1_565  S
C416        C961   1.416   1_455  A
C417        C960   1.416       .  A
C417        H422   1.083       .  S
C418        C419   1.394       .  A
C418        H423   1.083       .  S
C419        C964   1.417       .  A
C420        C963   1.418       .  A
C420        H424   1.083       .  S
C425        C970   1.418   1_455  A
C425        C430   1.399       .  A
C425        H431   1.083       .  S
C426        C969   1.418       .  A
C426        C427   1.399       .  A
C427        C428   1.402       .  A
C427        H432   1.083       .  S
C428        C973   1.416       .  A
C428        H433   1.083       .  S
C429        C972   1.417   1_455  A
C429        C430   1.396       .  A
C430        H434   1.083       .  S
C435        C436   1.399       .  A
C435        C440   1.396       .  A
C435        H441   1.084       .  S
C436        C437   1.414       .  A
C437        C438   1.421       .  A
C437        H442   1.083       .  S
C438        C439   1.411       .  A
C438        H443   1.083       .  S
C439        C440   1.414       .  A
C440        H444   1.083       .  S
C445        C990   1.396       .  A
C445        C450   1.401   1_556  A
C445        H451   1.083       .  S
C446        C989   1.398   1_455  A
C446        C447   1.417       .  A
C447        C448   1.405   1_556  A
C447        H452   1.083       .  S
C448        C993   1.400       .  A
C448        H453   1.083       .  S
C449        C992   1.397       .  A
C449        C450   1.418       .  A
C450        H454   1.083       .  S
C455        C456   1.418       .  A
C455        C460   1.401       .  A
C455        H461   1.083       .  S
C456        C457   1.398   1_565  A
C457        C458   1.402       .  A
C457        H462   1.083       .  S
C458        C459   1.419   1_545  A
C459        C460   1.397       .  A
C460        H464   1.083       .  S
C465        C466   1.415       .  A
C465        C470   1.401       .  A
C465        H471   1.083       .  S
C466        C467   1.409       .  A
C467        C468   1.418       .  A
C467        H472   1.082       .  S
C468        C469   1.414       .  A
C468        H473   1.083       .  S
C469        C470   1.399       .  A
C470        H474   1.084       .  S
C475        C476   1.417       .  A
C475        C480   1.400   1_556  A
C475        H481   1.083       .  S
C476       C1021   1.399       .  A
C477       C1020   1.397   1_455  A
C477        C478   1.403   1_556  A
C477        H482   1.083       .  S
C478        C479   1.419       .  A
C478        H483   1.083       .  S
C479       C1024   1.396   1_455  A
C480       C1023   1.397       .  A
C480        H484   1.083       .  S
C485       C1030   1.418   1_455  A
C485        H491   1.083       .  S
C486       C1029   1.417       .  A
C487        C488   1.395       .  A
C487        H492   1.083       .  S
C488       C1033   1.418       .  A
C488        H493   1.083       .  S
C489       C1032   1.415   1_455  A
C489        C490   1.392       .  A
C490        H494   1.084       .  S
C495        C496   1.398       .  A
C495        C500   1.403       .  A
C495        H501   1.083       .  S
C496       C1041   1.418       .  A
C497       C1040   1.417   1_455  A
C497        C498   1.401       .  A
C497        H502   1.083       .  S
C498        C499   1.397   1_455  A
C498        H503   1.083       .  S
C499       C1044   1.414       .  A
C500       C1043   1.419       .  A
C500        H504   1.083       .  S
C505        C506   1.417       .  A
C505        C510   1.400       .  A
C505        H511   1.083   1_565  S
C506        C507   1.399       .  A
C507        C508   1.403       .  A
C507        H512   1.083       .  S
C508        C509   1.417       .  A
C508        H513   1.083       .  S
C509        C510   1.397       .  A
C510        H514   1.083   1_565  S
C515        C792   1.395       .  A
C515        H521   1.083       .  S
C516        C517   1.417       .  A
C517        C518   1.393       .  A
C517        H522   1.083       .  S
C518       C1063   1.393       .  A
C518        H523   1.083       .  S
C519       C1062   1.393       .  A
C519        C520   1.418       .  A
C520        C787   1.395   1_465  A
C525        C526   1.418       .  A
C525        C530   1.405       .  A
C525        H531   1.083       .  S
C527        H532   1.083       .  S
C528        C529   1.418       .  A
C529        C530   1.399       .  A
C530        H534   1.083       .  S
C535        C536   1.416       .  A
C535        C540   1.424       .  A
C535        H541   1.083       .  S
C536        C537   1.400       .  A
C537        C538   1.399       .  A
C537        H542   1.084       .  S
C538        C539   1.414       .  A
C538        H543   1.083       .  S
C539        C540   1.413       .  A
C540        H544   1.082       .  S
O545       Ni553   1.963       .  S
O545        C555   1.293   1_545  A
O546       Ni553   1.962       .  S
O546        C556   1.294   1_545  A
O547       Ni553   1.893       .  S
O547        C557   1.274       .  A
O548       Ni553   1.870       .  S
O548        C830   1.268   1_545  A
O549       Ni554   1.967       .  S
O549        C558   1.295       .  A
O550       Ni826   1.986       .  S
O550        C557   1.297   1_565  A
O551       Ni554   1.885       .  S
O551        C828   1.271       .  A
O552       Ni554   1.856       .  S
O552        C827   1.266       .  A
Ni553      Ni826   2.379   1_545  S
Ni554       O822   1.975       .  S
Ni554      Ni825   2.383       .  S
C555        O824   1.266       .  A
C555       C1060   1.475       .  S
C556        O823   1.272       .  A
C556       C1070   1.497       .  S
C557        C811   1.516       .  S
C558        O820   1.270       .  A
C558        C778   1.492       .  S
O559       Ni567   1.962       .  S
O559        C569   1.294       .  A
O560       Ni567   1.964       .  S
O560        C570   1.294       .  A
O561       Ni567   1.894       .  S
O561        C571   1.272       .  A
O562       Ni567   1.874       .  S
O562        C572   1.269   1_655  A
O563       Ni568   1.974       .  S
O563        C572   1.296       .  A
O564       Ni568   1.981       .  S
O564        C571   1.296   1_455  A
O565       Ni568   1.885       .  S
O565        C570   1.271   1_455  A
O566       Ni568   1.856       .  S
O566        C569   1.266   1_455  A
Ni567      Ni568   2.380   1_655  S
C569        C758   1.477   1_655  S
C570        C768   1.494   1_655  S
C571        C808   1.498       .  S
C572        C748   1.493       .  S
O573       Ni581   1.964       .  S
O573        C583   1.294       .  A
O574       Ni581   1.965       .  S
O574        C584   1.294       .  A
O575       Ni581   1.896       .  S
O575        C585   1.275       .  A
O576       Ni581   1.875       .  S
O576        C586   1.269       .  A
O577       Ni582   1.970       .  S
O577        C586   1.296       .  A
O578       Ni582   1.978       .  S
O578        C585   1.295       .  A
O579       Ni582   1.880       .  S
O579        C584   1.270       .  A
O580       Ni582   1.854       .  S
O580        C583   1.266       .  A
Ni581      Ni582   2.379       .  S
C583        C791   1.477       .  S
C584        C801   1.493       .  S
C585        C738   1.510       .  S
C586        C728   1.492       .  S
O587       Ni595   1.953       .  S
O587        C597   1.292       .  A
O588       Ni595   1.956       .  S
O588        C598   1.292       .  A
O589       Ni595   1.895       .  S
O589        C599   1.273       .  A
O590       Ni595   1.890       .  S
O590        C600   1.273       .  A
O591       Ni596   1.959       .  S
O591        C600   1.293       .  A
O592       Ni596   1.971       .  S
O592        C599   1.294       .  A
O593       Ni596   1.887       .  S
O593        C598   1.272       .  A
O594       Ni596   1.862       .  S
O594        C597   1.268       .  A
Ni595      Ni596   2.384       .  S
C597        C761   1.471       .  S
C598        C771   1.487       .  S
C599        C741   1.490       .  S
C600        C718   1.492       .  S
O601       Ni609   1.959       .  S
O601        C611   1.292       .  A
O602       Ni609   1.957       .  S
O602        C612   1.293       .  A
O603       Ni609   1.888       .  S
O603        C613   1.274       .  A
O604       Ni609   1.875       .  S
O604        C614   1.269       .  A
O605       Ni610   1.970       .  S
O605        C614   1.296       .  A
O606       Ni610   1.983       .  S
O606        C613   1.296       .  A
O607       Ni610   1.886       .  S
O607        C612   1.271       .  A
O608       Ni610   1.853       .  S
O608        C611   1.266       .  A
Ni609      Ni610   2.381       .  S
C611        C688   1.471       .  S
C612        C701   1.488       .  S
C613        C711   1.510       .  S
C614        C751   1.492       .  S
O615       Ni623   1.960       .  S
O615        C625   1.293   1_545  A
O616       Ni623   1.961       .  S
O616        C626   1.293   1_545  A
O617       Ni623   1.889       .  S
O617        C627   1.272   1_545  A
O618       Ni623   1.877       .  S
O618        C900   1.270   1_545  A
O619       Ni624   1.969       .  S
O619        C628   1.296       .  A
O620       Ni896   1.975       .  S
O620        C627   1.294       .  A
O621       Ni624   1.877       .  S
O621        C898   1.270       .  A
O622       Ni624   1.853       .  S
O622        C897   1.266       .  A
Ni623      Ni896   2.383   1_545  S
Ni624       O892   1.975       .  S
Ni624      Ni895   2.381       .  S
C625        O894   1.266       .  A
C625        C940   1.475       .  S
C626        O893   1.271       .  A
C626        C950   1.491       .  S
C627        C708   1.491   1_565  S
C628        O890   1.269       .  A
C628        C731   1.492       .  S
O629       Ni637   1.958       .  S
O629        C639   1.293       .  A
O630       Ni637   1.963       .  S
O630        C640   1.294       .  A
O631       Ni637   1.894       .  S
O631        C641   1.272       .  A
O632       Ni637   1.885       .  S
O632        C642   1.271       .  A
O633       Ni638   1.961       .  S
O633        C642   1.294       .  A
O634       Ni638   1.970       .  S
O634        C641   1.294       .  A
O635       Ni638   1.881       .  S
O635        C640   1.270       .  A
O636       Ni638   1.855       .  S
O636        C639   1.266       .  A
Ni637      Ni638   2.383       .  S
C639        C671   1.474       .  S
C640        C681   1.489       .  S
C641        C658   1.489       .  S
C642        C781   1.490       .  S
O643       Ni651   1.959       .  S
O643        C653   1.293       .  A
O644       Ni651   1.958       .  S
O644        C654   1.293       .  A
O645       Ni651   1.893       .  S
O645        C655   1.274       .  A
O646       Ni651   1.868       .  S
O646        C656   1.268       .  A
O648       Ni652   1.979   1_655  S
O648        C655   1.296       .  A
O649       Ni652   1.884       .  S
O649        C654   1.271   1_455  A
O650       Ni652   1.858       .  S
O650        C653   1.267   1_455  A
Ni651      Ni652   2.381   1_655  S
C653        C691   1.475   1_655  S
C654        C698   1.493       .  S
C655        C661   1.507       .  S
C656        C721   1.490   1_655  S
C657        C658   1.398       .  A
C657        C662   1.402       .  A
C657        H663   1.083       .  S
C658        C659   1.415       .  A
C659        C660   1.416       .  A
C659        H664   1.084       .  S
C660        C661   1.406       .  A
C660        H665   1.083       .  S
C661        C662   1.417       .  A
C662        H666   1.083       .  S
C667        C668   1.417       .  A
C667        C672   1.393       .  A
C667        H673   1.083       .  S
C668        C897   1.475       .  S
C668        C941   1.394       .  A
C669        C940   1.393   1_545  A
C670        C671   1.417       .  A
C670        H947   1.083       .  S
C672        H676   1.083       .  S
H675        C942   1.084       .  S
C677        C950   1.398   1_545  A
C677        C954   1.402   1_545  A
C677        H683   1.083       .  S
C678        C898   1.492       .  S
C678        C949   1.398       .  A
C678        C679   1.418       .  A
C679        C680   1.401       .  A
C679        H684   1.083       .  S
C680        C681   1.397       .  A
C680        H685   1.083       .  S
C681        C682   1.417       .  A
C682        C949   1.402       .  A
C682        H958   1.083       .  S
H686        C954   1.083   1_545  S
C687        C960   1.393       .  A
C687        C692   1.394       .  A
C687        H693   1.083       .  S
C688        C959   1.392   1_545  A
C689        C962   1.395       .  A
C689        H694   1.083   1_565  S
C690        C961   1.395       .  A
C690        C691   1.394   1_655  A
C690        H695   1.083       .  S
C692        H696   1.083       .  S
C697        C702   1.399       .  A
C697        H703   1.083       .  S
C698        C699   1.399       .  A
C699        C700   1.402       .  A
C699        H704   1.083       .  S
C700        H705   1.083       .  S
C701        C702   1.396       .  A
C702        H706   1.083       .  S
C707        C708   1.399       .  A
C707        C712   1.396       .  A
C707        H713   1.084       .  S
C708        C709   1.414       .  A
C709        C710   1.422       .  A
C709        H714   1.083   1_545  S
C710        C711   1.412       .  A
C710        H715   1.083       .  S
C711        C712   1.414       .  A
C712        H716   1.083       .  S
C717        C722   1.401   1_556  A
C717        H723   1.083       .  S
C718        C719   1.417       .  A
C719        C720   1.405   1_556  A
C719        H724   1.083       .  S
C720        H725   1.083       .  S
C721        C722   1.418   1_455  A
C722        H726   1.083       .  S
C727        C728   1.418       .  A
C727        C732   1.401       .  A
C727        H733   1.083       .  S
C728        C729   1.398       .  A
C729        C730   1.402       .  A
C729        H734   1.083       .  S
C730        C731   1.419       .  A
C730       H1007   1.083       .  S
C731        C732   1.397       .  A
C732        H736   1.083       .  S
H735       C1002   1.083   1_545  S
C737        C738   1.415       .  A
C737        C742   1.401       .  A
C737        H743   1.083       .  S
C738        C739   1.409       .  A
C739        C740   1.418       .  A
C739        H744   1.082       .  S
C740        C741   1.414       .  A
C740        H745   1.083       .  S
C741        C742   1.399       .  A
C742        H746   1.084       .  S
C747        C748   1.417   1_655  A
C747        C752   1.400   1_556  A
C747        H753   1.083       .  S
C749        C750   1.403   1_556  A
C749        H754   1.083       .  S
C750        C751   1.419       .  A
C750        H755   1.083       .  S
C752        H756   1.083       .  S
C757       C1034   1.394   1_545  A
C757        H763   1.083       .  S
C758       C1031   1.395   1_445  A
C759       C1030   1.392       .  A
C759        C760   1.395       .  A
C759        H764   1.083       .  S
C760        H765   1.083       .  S
C761        C762   1.392       .  A
C762       C1029   1.392       .  A
C762        H766   1.084       .  S
C767        C768   1.398   1_655  A
C767        C772   1.403       .  A
C767        H773   1.083       .  S
C769        C770   1.401       .  A
C769        H774   1.083       .  S
C770        C771   1.397       .  A
C770        H775   1.083       .  S
C772        H776   1.083       .  S
C777        C778   1.417       .  A
C777        C782   1.400       .  A
C777        H783   1.083       .  S
C778        C779   1.399       .  A
C779        C780   1.403       .  A
C779        H784   1.083       .  S
C780        C781   1.417       .  A
C780        H785   1.083       .  S
C781        C782   1.397       .  A
C782        H786   1.083       .  S
C787       C1060   1.392   1_545  A
C787        H793   1.083       .  S
C788        C827   1.475       .  S
C788       C1059   1.393       .  A
C788        C789   1.417       .  A
C789        C790   1.394   1_655  A
C789        H794   1.083       .  S
C790        H795   1.083       .  S
C791        C792   1.418       .  A
C792       H1068   1.083       .  S
H796       C1064   1.083   1_545  S
C797        C798   1.418       .  A
C797        C802   1.405       .  A
C797        H803   1.083       .  S
C798        C828   1.493       .  S
C798       C1071   1.397       .  A
C799       C1070   1.400   1_545  A
C799       C1072   1.404       .  A
C799        H804   1.083       .  S
C800       C1071   1.401       .  A
C800        C801   1.418       .  A
C800       H1077   1.083       .  S
C801        C802   1.399       .  A
C802        H806   1.083       .  S
H805       C1072   1.083       .  S
C807        C808   1.416       .  A
C807        C812   1.424       .  A
C807        H813   1.083       .  S
C808        C809   1.400       .  A
C809        C810   1.399       .  A
C809        H814   1.084       .  S
C810        C811   1.414       .  A
C810        H815   1.083       .  S
C811        C812   1.413       .  A
C812        H816   1.082   1_545  S
O817       Ni825   1.958       .  S
O817        C827   1.293       .  A
O818       Ni825   1.962       .  S
O818        C828   1.294       .  A
O819       Ni825   1.893       .  S
O819        C829   1.271       .  A
O820       Ni825   1.876       .  S
O821       Ni826   1.971       .  S
O821        C830   1.296       .  A
O822        C829   1.295       .  A
O823       Ni826   1.888       .  S
O824       Ni826   1.856       .  S
C829       C1083   1.491       .  S
C830       C1050   1.489       .  S
O831       Ni839   1.961       .  S
O831        C841   1.293       .  A
O832       Ni839   1.960       .  S
O832        C842   1.293       .  A
O833       Ni839   1.894       .  S
O833        C843   1.274       .  A
O834       Ni839   1.870       .  S
O834        C844   1.268       .  A
O835       Ni840   1.975       .  S
O835        C844   1.297   1_455  A
O836       Ni840   1.981   1_655  S
O836        C843   1.296       .  A
O837       Ni840   1.879   1_655  S
O837        C842   1.270       .  A
O838       Ni840   1.852       .  S
O838        C841   1.266   1_455  A
Ni839      Ni840   2.380   1_655  S
C841       C1030   1.474       .  S
C842       C1040   1.490       .  S
C843       C1080   1.510       .  S
C844       C1020   1.493       .  S
O845       Ni853   1.957       .  S
O845        C855   1.293       .  A
O846       Ni853   1.967       .  S
O846        C856   1.295       .  A
O847       Ni853   1.898       .  S
O847        C857   1.273       .  A
O848       Ni853   1.881       .  S
O848        C858   1.271       .  A
O849       Ni854   1.966       .  S
O849        C858   1.294       .  A
O850       Ni854   1.976       .  S
O850        C857   1.295       .  A
O851       Ni854   1.886       .  S
O851        C856   1.271       .  A
O852       Ni854   1.858       .  S
O852        C855   1.266       .  A
Ni853      Ni854   2.382       .  S
C855       C1063   1.474       .  S
C856       C1073   1.496       .  S
C857       C1010   1.496       .  S
C858       C1000   1.491       .  S
O859       Ni867   1.964       .  S
O859        C869   1.294       .  A
O860       Ni867   1.968       .  S
O860        C870   1.295       .  A
O861       Ni867   1.893       .  S
O861        C871   1.273       .  A
O862       Ni867   1.874       .  S
O862        C872   1.268       .  A
O863       Ni868   1.971       .  S
O863        C872   1.296       .  A
O864       Ni868   1.983       .  S
O864        C871   1.297       .  A
O865       Ni868   1.880       .  S
O865        C870   1.270       .  A
O866       Ni868   1.851       .  S
O866        C869   1.265       .  A
Ni867      Ni868   2.381       .  S
C869       C1033   1.474       .  S
C870       C1043   1.495       .  S
C871       C1013   1.507       .  S
C872        C990   1.491       .  S
O873       Ni881   1.958       .  S
O873        C883   1.293       .  A
O874       Ni881   1.966       .  S
O874        C884   1.294       .  A
O875       Ni881   1.893       .  S
O875        C885   1.272       .  A
O876       Ni881   1.886       .  S
O876        C886   1.271       .  A
O877       Ni882   1.960       .  S
O877        C886   1.294       .  A
O878       Ni882   1.969       .  S
O878        C885   1.294       .  A
O879       Ni882   1.884       .  S
O879        C884   1.271       .  A
O880       Ni882   1.857       .  S
O880        C883   1.267       .  A
Ni881      Ni882   2.384       .  S
C883        C960   1.474       .  S
C884        C973   1.492       .  S
C885        C983   1.488       .  S
C886       C1023   1.491       .  S
O887       Ni895   1.962       .  S
O887        C897   1.293       .  A
O888       Ni895   1.964       .  S
O888        C898   1.294       .  A
O889       Ni895   1.893       .  S
O889        C899   1.274       .  A
O890       Ni895   1.876       .  S
O891       Ni896   1.968       .  S
O891        C900   1.295       .  A
O892        C899   1.295       .  A
O893       Ni896   1.884       .  S
O894       Ni896   1.855       .  S
C899        C980   1.502       .  S
C900       C1003   1.491       .  S
O901       Ni909   1.956       .  S
O901        C911   1.292       .  A
O902       Ni909   1.959       .  S
O902        C912   1.293       .  A
O903       Ni909   1.891       .  S
O903        C913   1.273       .  A
O904       Ni909   1.872       .  S
O904        C914   1.269       .  A
O905       Ni910   1.970       .  S
O905        C914   1.296       .  A
O906       Ni910   1.980       .  S
O906        C913   1.296       .  A
O907       Ni910   1.882       .  S
O907        C912   1.271       .  A
O908       Ni910   1.857       .  S
O908        C911   1.267       .  A
Ni909      Ni910   2.382       .  S
C911        C943   1.472       .  S
C912        C953   1.490       .  S
C913        C930   1.502       .  S
C914       C1053   1.490       .  S
O915       Ni923   1.961       .  S
O915        C925   1.294       .  A
O916       Ni923   1.966       .  S
O916        C926   1.294       .  A
O917       Ni923   1.892       .  S
O917        C927   1.272       .  A
O918       Ni923   1.877       .  S
O918        C928   1.270   1_655  A
O920       Ni924   1.976       .  S
O920        C927   1.295   1_455  A
O921       Ni924   1.875       .  S
O921        C926   1.269   1_455  A
O922       Ni924   1.855       .  S
O922        C925   1.265   1_455  A
Ni923      Ni924   2.381   1_655  S
C925        C963   1.477   1_655  S
C926        C970   1.492       .  S
C927        C933   1.493       .  S
C928        C993   1.494       .  S
C929        C930   1.402       .  A
C929        C934   1.413       .  A
C929        H935   1.083       .  S
C930        C931   1.417       .  A
C931        C932   1.407       .  A
C931        H936   1.083       .  S
C932        C933   1.399       .  A
C932        H937   1.083       .  S
C933        C934   1.416       .  A
C934        H938   1.083       .  S
C939        C940   1.417       .  A
C939        C944   1.394       .  A
C939        H945   1.083       .  S
C942        C943   1.417   1_545  A
C944        H948   1.083       .  S
C949        H955   1.083       .  S
C950        C951   1.417       .  A
C951        C952   1.401       .  A
C951        H956   1.083       .  S
C952        C953   1.398       .  A
C952        H957   1.083       .  S
C953        C954   1.418       .  A
C959        C964   1.394       .  A
C959        H965   1.083       .  S
C961        H966   1.084       .  S
C962        C963   1.394   1_655  A
C962        H967   1.083       .  S
C964        H968   1.083       .  S
C969        C974   1.403       .  A
C969        H975   1.083       .  S
C970        C971   1.399       .  A
C971        C972   1.404       .  A
C971        H976   1.083       .  S
C972        H977   1.083       .  S
C973        C974   1.398       .  A
C974        H978   1.083       .  S
C979        C980   1.403       .  A
C979        C984   1.413       .  A
C979        H985   1.083       .  S
C980        C981   1.416       .  A
C981        C982   1.404       .  A
C981        H986   1.083       .  S
C982        C983   1.398       .  A
C982        H987   1.083       .  S
C983        C984   1.415       .  A
C984        H988   1.083       .  S
C989        C994   1.400   1_556  A
C989        H995   1.083       .  S
C990        C991   1.419   1_556  A
C991        C992   1.402       .  A
C991        H996   1.083   1_554  S
C992        H997   1.083       .  S
C993        C994   1.417   1_455  A
C994        H998   1.083       .  S
C999       C1000   1.417       .  A
C999       C1004   1.401       .  A
C999       H1005   1.083       .  S
C1000      C1001   1.398       .  A
C1001      C1002   1.403       .  A
C1001      H1006   1.083   1_565  S
C1002      C1003   1.418       .  A
C1003      C1004   1.398       .  A
C1004      H1008   1.083       .  S
C1009      C1010   1.417       .  A
C1009      C1014   1.416       .  A
C1009      H1015   1.083       .  S
C1010      C1011   1.398       .  A
C1011      C1012   1.406       .  A
C1011      H1016   1.083       .  S
C1012      C1013   1.417       .  A
C1012      H1017   1.083       .  S
C1013      C1014   1.405       .  A
C1014      H1018   1.083       .  S
C1019      C1020   1.419       .  A
C1019      C1024   1.401   1_556  A
C1019      H1025   1.083       .  S
C1021      C1022   1.405   1_556  A
C1021      H1026   1.083       .  S
C1022      C1023   1.418       .  A
C1022      H1027   1.083       .  S
C1024      H1028   1.083       .  S
C1029      H1035   1.083       .  S
C1031      C1032   1.396       .  A
C1031      H1036   1.083       .  S
C1032      H1037   1.083       .  S
C1033      C1034   1.392       .  A
C1034      H1038   1.083       .  S
C1039      C1040   1.400       .  A
C1039      C1044   1.402       .  A
C1039      H1045   1.083       .  S
C1041      C1042   1.404       .  A
C1041      H1046   1.083       .  S
C1042      C1043   1.398       .  A
C1042      H1047   1.083       .  S
C1044      H1048   1.083       .  S
C1049      C1050   1.419   1_545  A
C1049      C1054   1.403       .  A
C1049      H1055   1.083       .  S
C1050      C1051   1.396       .  A
C1051      C1052   1.399       .  A
C1051      H1056   1.083       .  S
C1052      C1053   1.418       .  A
C1052      H1057   1.083       .  S
C1053      C1054   1.397   1_565  A
C1054      H1058   1.083       .  S
C1059      H1065   1.083       .  S
C1060      C1061   1.418       .  A
C1061      C1062   1.396   1_655  A
C1061      H1066   1.083       .  S
C1062      H1067   1.083       .  S
C1063      C1064   1.417       .  A
C1069      C1070   1.418       .  A
C1069      C1074   1.406       .  A
C1069      H1075   1.083       .  S
C1071      H1076   1.083       .  S
C1072      C1073   1.417   1_545  A
C1073      C1074   1.399       .  A
C1074      H1078   1.083       .  S
C1079      C1080   1.417       .  A
C1079      C1084   1.403       .  A
C1079      H1085   1.083       .  S
C1080      C1081   1.407       .  A
C1081      C1082   1.417       .  A
C1081      H1086   1.082       .  S
C1082      C1083   1.415       .  A
C1082      H1087   1.083       .  S
C1083      C1084   1.398       .  A
C1084      H1088   1.083       .  S
