geometry optimzed in LAMMPS
_audit_creation_date              2020-12-01 
_audit_creation_method            'lammps2cif' 
_symmetry_space_group_name_H-M    'P1' 
_symmetry_Int_Tables_number       1 
_symmetry_cell_setting            triclinic 
loop_ 
_symmetry_equiv_pos_as_xyz 
  x,y,z 
_cell_length_a                    52.64086635 
_cell_length_b                    52.81896875651263 
_cell_length_c                    38.414783507481346 
_cell_angle_alpha                 90.15708786022724 
_cell_angle_beta                  89.99859931425897 
_cell_angle_gamma                 121.55124090420713 
loop_ 
_atom_site_label 
_atom_site_type_symbol 
_atom_site_fract_x 
_atom_site_fract_y 
_atom_site_fract_z 
_atom_site_charge 
O1          O  0.17114965  0.63797111  0.37764945    -0.57500
C2          C  0.10631269  0.55868735  0.33764647     0.75200
O3          O  0.20583071  0.57735999  0.34608737    -0.58600
C4          C  0.19316935  0.65564163  0.35919158     0.75100
C5          C  0.17027858  0.58800982  0.43309673     0.77500
Cd6        Cd  0.16823750  0.59226235  0.35793888     1.37500
O7          O  0.12270531  0.58640208  0.33251886    -0.57500
O8          O  0.19383757  0.60273030  0.41529679    -0.56300
C9          C  0.20392957  0.57725291  0.31315839     0.77500
O10         O  0.14655890  0.57184279  0.41599045    -0.58600
O11         O  0.11895437  0.54591245  0.35032011    -0.57100
O12         O  0.20130874  0.64398014  0.33643448    -0.57100
O13         O  0.18453305  0.58221136  0.30123504    -0.56300
O14         O  0.18721824  0.64432938  0.81995244    -0.57500
C15         C  0.17263451  0.63356484  0.68670603     0.75200
O16         O  0.19325383  0.59378891  0.78323773    -0.58600
C17         C  0.20944265  0.66863952  0.80991721     0.75100
C18         C  0.10890268  0.59398145  0.78063745     0.77500
Cd19       Cd  0.17027105  0.62166958  0.76075028     1.37500
O20         O  0.19613107  0.64360331  0.70482638    -0.57500
O21         O  0.12447906  0.62139203  0.77328858    -0.56300
C22         C  0.19293448  0.58289106  0.75375016     0.77500
O23         O  0.12208090  0.57963408  0.77975665    -0.58600
O24         O  0.14849743  0.62269197  0.70361182    -0.57100
O25         O  0.21246291  0.67231249  0.77723497    -0.57100
O26         O  0.17871456  0.58665271  0.73007643    -0.56300
O27         O  0.87472894  0.46768639  0.83419205    -0.57500
C28         C  0.80579735  0.40420048  0.86487316     0.75200
O29         O  0.80522494  0.45821467  0.91646899    -0.58600
C30         C  0.89189288  0.49563081  0.83487870     0.75100
C31         C  0.79675671  0.48007944  0.81325331     0.77500
Cd32       Cd  0.83174460  0.46651776  0.85996518     1.37500
O33         O  0.79585605  0.41468665  0.84289429    -0.57500
O34         O  0.81093108  0.46815961  0.80296319    -0.56300
C35         C  0.82838825  0.47103918  0.93532761     0.77500
O36         O  0.79980920  0.48739831  0.84518788    -0.58600
O37         O  0.82962550  0.42232484  0.88043886    -0.57100
O38         O  0.88081131  0.51044574  0.84596492    -0.57100
O39         O  0.85288553  0.48557428  0.91912597    -0.56300
O40         O  0.81184293  0.40348595  0.32387977    -0.57500
C41         C  0.82389075  0.42618348  0.19044842     0.75200
O42         O  0.79330336  0.44463772  0.29061447    -0.58600
C43         C  0.79053399  0.37855872  0.31358308     0.75100
C44         C  0.88757167  0.45377229  0.28717644     0.77500
Cd45       Cd  0.82629393  0.42863078  0.26660216     1.37500
O46         O  0.80036539  0.41032163  0.20806854    -0.57500
O47         O  0.87322974  0.42851652  0.27246369    -0.56300
C48         C  0.80229800  0.46638628  0.27021407     0.77500
O49         O  0.87315898  0.46642092  0.29334614    -0.58600
O50         O  0.84788127  0.43902584  0.20773237    -0.57100
O51         O  0.78684009  0.37549406  0.28078112    -0.57100
O52         O  0.82521865  0.47336526  0.25256372    -0.56300
O53         O  0.46118441  0.69729823  0.68326769    -0.57500
C54         C  0.44566719  0.64817404  0.77454135     0.75200
O55         O  0.39329120  0.62371335  0.67451929    -0.58600
C56         C  0.45933049  0.69340058  0.65046833     0.75100
C57         C  0.47525044  0.61409399  0.67787872     0.77500
Cd58       Cd  0.44419873  0.64372791  0.69853710     1.37500
O59         O  0.43318455  0.65855661  0.75621628    -0.57500
O60         O  0.48953798  0.64072284  0.68884993    -0.56300
C61         C  0.38058105  0.60410887  0.69778146     0.77500
O62         O  0.44728499  0.60214343  0.67507161    -0.58600
O63         O  0.46184211  0.64106392  0.75795706    -0.57100
O64         O  0.45244275  0.66773827  0.64047086    -0.57100
O65         O  0.39737355  0.60091498  0.71825566    -0.56300
O66         O  0.34610018  0.56946036  0.11549953    -0.57500
C67         C  0.38949871  0.58338522  0.02283877     0.75200
O68         O  0.44179388  0.63090002  0.07206375    -0.58600
C69         C  0.35197070  0.57751477  0.14715471     0.75100
C70         C  0.42348659  0.55111714  0.11955055     0.77500
Cd71       Cd  0.39909592  0.58692960  0.09799246     1.37500
O72         O  0.39871416  0.56860384  0.03847096    -0.57500
O73         O  0.39750815  0.53918454  0.10670208    -0.56300
C74         C  0.44285047  0.64959584  0.09340030     0.77500
O75         O  0.43748465  0.57907490  0.12306828    -0.58600
O76         O  0.37965873  0.59584691  0.04220970    -0.57100
O77         O  0.37891522  0.58872973  0.15601398    -0.57100
O78         O  0.42593647  0.63916343  0.11959461    -0.56300
O79         O  0.64801002  0.47622988  0.61690317    -0.57500
C80         C  0.60062598  0.45941069  0.52730823     0.75200
O81         O  0.57246660  0.40951184  0.62726312    -0.58600
C82         C  0.64409770  0.47217146  0.64952878     0.75100
C83         C  0.57071080  0.49638061  0.62378427     0.77500
Cd84       Cd  0.59478509  0.46000412  0.60279740     1.37500
O85         O  0.60925332  0.44615884  0.54699605    -0.57500
O86         O  0.59717856  0.50810648  0.61257052    -0.56300
C87         C  0.55293685  0.39705095  0.60369434     0.77500
O88         O  0.55599311  0.46830439  0.62595819    -0.58600
O89         O  0.59452535  0.47693938  0.54241934    -0.57100
O90         O  0.61822265  0.46401588  0.66031111    -0.57100
O91         O  0.55008651  0.41401223  0.58316763    -0.56300
O92         O  0.53840165  0.35542992  0.19162294    -0.57500
C93         C  0.53953861  0.39701409  0.27998202     0.75200
O94         O  0.59746845  0.43697806  0.23709409    -0.58600
C95         C  0.53938718  0.35840568  0.15882837     0.75100
C96         C  0.52108513  0.43789684  0.18493050     0.77500
Cd97       Cd  0.55120925  0.40743547  0.20597083     1.37500
O98         O  0.52832141  0.40878712  0.26188673    -0.57500
O99         O  0.50744804  0.40975253  0.18553193    -0.56300
C100        C  0.61528330  0.44601318  0.21187871     0.77500
O101        O  0.54838527  0.45158602  0.19334490    -0.58600
O102        O  0.55117731  0.38500660  0.26302985    -0.57100
O103        O  0.54427152  0.38313302  0.14797264    -0.57100
O104        O  0.60356559  0.43877302  0.18190208    -0.56300
O105        O  0.43859626  0.90884012  0.45215094    -0.57500
C106        C  0.37250638  0.83572292  0.42756961     0.75200
O107        O  0.45671750  0.88191691  0.36974503    -0.58600
C108        C  0.46632955  0.92646885  0.44785544     0.75100
C109        C  0.45440926  0.83324537  0.47767363     0.77500
Cd110      Cd  0.43631442  0.86396694  0.42906715     1.37500
O111        O  0.38942949  0.85909241  0.41065335    -0.57500
O112        O  0.44265512  0.84768693  0.48753250    -0.56300
C113        C  0.43998295  0.85760359  0.35399025     0.77500
O114        O  0.45929654  0.83390736  0.44523299    -0.58600
O115        O  0.38494717  0.82734473  0.44888078    -0.57100
O116        O  0.48055956  0.91503742  0.43596110    -0.57100
O117        O  0.42445075  0.83529183  0.37325982    -0.56300
O118        O  0.36062543  0.81661826  0.00894171    -0.57500
C119        C  0.40623694  0.85519178  0.09708138     0.75200
O120        O  0.43791344  0.82414059  0.00525387    -0.58600
C121        C  0.36570761  0.81098278  0.97844365     0.75100
C122        C  0.44207741  0.91142921  0.99545814     0.77500
Cd123      Cd  0.41500303  0.85237780  0.02348332     1.37500
O124        O  0.38952976  0.83142473  0.08015156    -0.57500
O125        O  0.41509171  0.89687388  0.00506191    -0.56300
C126        C  0.45293924  0.82876846  0.03275037     0.77500
O127        O  0.45612573  0.89801135  0.99695872    -0.58600
O128        O  0.42343491  0.87790733  0.07918703    -0.57100
O129        O  0.39278517  0.82477628  0.96931096    -0.57100
O130        O  0.45239998  0.84632699  0.05455515    -0.56300
O131        O  0.64537804  0.23972909  0.52092952    -0.57500
C132        C  0.60204967  0.20336249  0.61078604     0.75200
O133        O  0.57132992  0.23243873  0.51980461    -0.58600
C134        C  0.64041452  0.23950547  0.48854780     0.75100
C135        C  0.56519418  0.14186667  0.51051279     0.77500
Cd136      Cd  0.59189667  0.20168323  0.53649632     1.37500
O137        O  0.59378140  0.18012913  0.59293372    -0.57500
O138        O  0.59212177  0.15643249  0.52052136    -0.56300
C139        C  0.55043336  0.22140817  0.54185253     0.77500
O140        O  0.55105980  0.15521728  0.51186949    -0.58600
O141        O  0.60992139  0.22681945  0.59371578    -0.57100
O142        O  0.61380378  0.22179770  0.47897492    -0.57100
O143        O  0.54670027  0.19923217  0.55866965    -0.56300
O144        O  0.56850413  0.14668755  0.95858737    -0.57500
C145        C  0.63371108  0.21988391  0.93642947     0.75200
O146        O  0.57571824  0.21824015  0.88444713    -0.58600
C147        C  0.54058890  0.12948214  0.95531880     0.75100
C148        C  0.55238288  0.22257578  0.98707131     0.77500
Cd149      Cd  0.56993880  0.19146270  0.93914853     1.37500
O150        O  0.61685056  0.20158089  0.91361606    -0.57500
O151        O  0.56105619  0.20547896  0.99689655    -0.56300
C152        C  0.56211991  0.19495786  0.86590276     0.77500
O153        O  0.55046787  0.22468310  0.95442104    -0.58600
O154        O  0.62103166  0.22273859  0.96282628    -0.57100
O155        O  0.52599472  0.14138434  0.94654781    -0.57100
O156        O  0.54854921  0.17051263  0.88204505    -0.56300
C157        C  0.61005493  0.25371376  0.72246308    -0.17500
C158        C  0.60252459  0.25237455  0.75762641    -0.19600
C159        C  0.58665337  0.22493624  0.77474200     0.21000
C160        C  0.57830238  0.19856351  0.75623282    -0.02600
C161        C  0.58614668  0.19994028  0.72080269    -0.05600
C162        C  0.60198656  0.22765599  0.70381599     0.21300
C163        C  0.57790167  0.17359174  0.70232391     0.19400
C164        C  0.56198441  0.14612984  0.71945400    -0.17100
C165        C  0.55427831  0.14477259  0.75456485    -0.19300
C166        C  0.56230640  0.17083964  0.77316087     0.20900
C167        C  0.55526099  0.16973547  0.80856769    -0.32300
C168        C  0.56436881  0.19601323  0.82748713     0.01600
C169        C  0.57963716  0.22349366  0.81021704    -0.23700
C170        C  0.60880600  0.22878673  0.66828278    -0.28300
C171        C  0.59995091  0.20256931  0.64937015     0.07300
C172        C  0.58502876  0.17509538  0.66683906    -0.26900
H173        H  0.62216242  0.27517642  0.70980850     0.12000
H174        H  0.60915298  0.27283072  0.77145523     0.13100
H175        H  0.55539786  0.12567645  0.70564987     0.12200
H176        H  0.54207297  0.12329755  0.76721092     0.11500
H177        H  0.54383650  0.14845853  0.82175118     0.16900
H178        H  0.58698452  0.24385366  0.82465400     0.12800
H179        H  0.62006492  0.25002752  0.65505006     0.15600
H180        H  0.57776720  0.15471961  0.65247180     0.15400
C181        C  0.54694963  0.04036903  0.97261475    -0.17500
C182        C  0.53318187  0.00962950  0.97681630    -0.19600
C183        C  0.50197496  0.99140608  0.97711020     0.21000
C184        C  0.48447142  0.00424026  0.97254758    -0.02600
C185        C  0.49835435  0.03521617  0.96810371    -0.05600
C186        C  0.52973089  0.05337087  0.96849071     0.21300
C187        C  0.48081515  0.04802752  0.96368658     0.19400
C188        C  0.44963370  0.02978464  0.96352334    -0.17100
C189        C  0.43587539  0.99913632  0.96831003    -0.19300
C190        C  0.45308585  0.98621158  0.97307648     0.20900
C191        C  0.43941562  0.95567863  0.97921496    -0.32300
C192        C  0.45666430  0.94283449  0.98469664     0.01600
C193        C  0.48793812  0.96071620  0.98282170    -0.23700
C194        C  0.54332883  0.08420187  0.96486495    -0.28300
C195        C  0.52598437  0.09711608  0.96051985     0.07300
C196        C  0.49474677  0.07885980  0.95971770    -0.26900
H197        H  0.57106373  0.05399726  0.97281215     0.12000
H198        H  0.54696055  0.00014372  0.98027379     0.13100
H199        H  0.43585573  0.03926592  0.96006967     0.12200
H200        H  0.41176911  0.98557123  0.96857196     0.11500
H201        H  0.41532833  0.94201667  0.98052385     0.16900
H202        H  0.50139093  0.95096733  0.98718983     0.12800
H203        H  0.56743967  0.09811159  0.96510158     0.15600
H204        H  0.48125155  0.08865032  0.95614460     0.15400
C205        C  0.46078640  0.01274263  0.48717629    -0.17500
C206        C  0.47454063  0.04297073  0.49522265    -0.19600
C207        C  0.50549993  0.06189626  0.49175808     0.21000
C208        C  0.52275633  0.05034776  0.47965182    -0.02600
C209        C  0.50881969  0.01985563  0.47123425    -0.05600
C210        C  0.47772416  0.00094233  0.47533276     0.21300
C211        C  0.52602782  0.00825719  0.45910752     0.19400
C212        C  0.55695391  0.02732588  0.45516160    -0.17100
C213        C  0.57080829  0.05747746  0.46385504    -0.19300
C214        C  0.55396476  0.06915406  0.47642190     0.20900
C215        C  0.56777549  0.09915993  0.48627685    -0.32300
C216        C  0.55068728  0.11069172  0.49863667     0.01600
C217        C  0.51953304  0.09204324  0.50074012    -0.23700
C218        C  0.46411769  0.97053683  0.46774611    -0.28300
C219        C  0.48110022  0.95867017  0.45595103     0.07300
C220        C  0.51205592  0.97778079  0.45143299    -0.26900
H221        H  0.43687582  0.99854467  0.49037804     0.12000
H222        H  0.46098678  0.05149077  0.50449661     0.13100
H223        H  0.57049256  0.01884522  0.44572292     0.12200
H224        H  0.59475521  0.07162697  0.46098551     0.11500
H225        H  0.59178889  0.11352845  0.48437392     0.16900
H226        H  0.50627614  0.10080171  0.51038956     0.12800
H227        H  0.44023679  0.95608561  0.47106180     0.15600
H228        H  0.52531429  0.96891867  0.44215296     0.15400
C229        C  0.38651602  0.80362488  0.24641506    -0.17500
C230        C  0.38038748  0.80380445  0.21093061    -0.19600
C231        C  0.39660873  0.82986663  0.19124512     0.21000
C232        C  0.41927020  0.85600991  0.20756346    -0.02600
C233        C  0.42560969  0.85577174  0.24333073    -0.05600
C234        C  0.40908719  0.82948215  0.26290194     0.21300
C235        C  0.44831662  0.88193013  0.25953790     0.19400
C236        C  0.46456255  0.90798795  0.23987655    -0.17100
C237        C  0.45835429  0.90820904  0.20450307    -0.19300
C238        C  0.43574870  0.88236317  0.18812920     0.20900
C239        C  0.42985879  0.88229541  0.15248902    -0.32300
C240        C  0.40795481  0.85610958  0.13568237     0.01600
C241        C  0.39106934  0.83008443  0.15542457    -0.23700
C242        C  0.41497058  0.82971432  0.29872941    -0.28300
C243        C  0.43709748  0.85596851  0.31533010     0.07300
C244        C  0.45395621  0.88181175  0.29527089    -0.26900
H245        H  0.37353636  0.78324096  0.26099943     0.12000
H246        H  0.36294754  0.78350318  0.19886650     0.13100
H247        H  0.48205030  0.92829166  0.25190933     0.12200
H248        H  0.47128317  0.92859197  0.18993505     0.11500
H249        H  0.44322439  0.90240317  0.13755661     0.16900
H250        H  0.37437788  0.80972932  0.14269500     0.12800
H251        H  0.40160562  0.80974546  0.31390812     0.15600
H252        H  0.47087281  0.90221120  0.30772598     0.15400
C253        C  0.55560337  0.25611891  0.10797484    -0.17500
C254        C  0.55348912  0.27481383  0.13212943    -0.19600
C255        C  0.54444683  0.29433298  0.12156971     0.21000
C256        C  0.53683269  0.29451618  0.08634620    -0.02600
C257        C  0.53879534  0.27545389  0.06192657    -0.05600
C258        C  0.54859849  0.25648261  0.07279420     0.21300
C259        C  0.53171111  0.27594316  0.02655484     0.19400
C260        C  0.52190198  0.29492080  0.01619456    -0.17100
C261        C  0.52016538  0.31395262  0.04032064    -0.19300
C262        C  0.52805712  0.31429148  0.07535500     0.20900
C263        C  0.52811127  0.33456014  0.09935916    -0.32300
C264        C  0.53628476  0.33495145  0.13442257     0.01600
C265        C  0.54372680  0.31423059  0.14540613    -0.23700
C266        C  0.55195286  0.23871367  0.04824891    -0.28300
C267        C  0.54591193  0.23966726  0.01271907     0.07300
C268        C  0.53530590  0.25804185  0.00214409    -0.26900
H269        H  0.56310637  0.24162643  0.11675199     0.12000
H270        H  0.55941864  0.27434479  0.15904881     0.13100
H271        H  0.51611571  0.29547968  0.98924449     0.12200
H272        H  0.51310162  0.32876422  0.03144449     0.11500
H273        H  0.52222600  0.35033756  0.09066136     0.16900
H274        H  0.55025043  0.31447169  0.17225513     0.12800
H275        H  0.56008703  0.22466717  0.05678267     0.15600
H276        H  0.53047919  0.25890202  0.97488223     0.15400
C277        C  0.52972276  0.27252780  0.63126210    -0.17500
C278        C  0.53141885  0.29895998  0.64066994    -0.19600
C279        C  0.53036158  0.31730544  0.61511000     0.21000
C280        C  0.52572807  0.30806445  0.57992311    -0.02600
C281        C  0.52483818  0.28182367  0.57032038    -0.05600
C282        C  0.52755601  0.26438101  0.59608323     0.21300
C283        C  0.52400397  0.27456130  0.53473333     0.19400
C284        C  0.52114502  0.29195272  0.50935585    -0.17100
C285        C  0.52119979  0.31753154  0.51893545    -0.19300
C286        C  0.52459757  0.32631558  0.55399615     0.20900
C287        C  0.52952656  0.35421883  0.56317321    -0.32300
C288        C  0.53728218  0.36476807  0.59754666     0.01600
C289        C  0.53631206  0.34574449  0.62367340    -0.23700
C290        C  0.53111935  0.24091931  0.58602258    -0.28300
C291        C  0.53419052  0.23621332  0.55066306     0.07300
C292        C  0.52897046  0.25188163  0.52510352    -0.26900
H293        H  0.53182153  0.25935388  0.65131342     0.12000
H294        H  0.53475580  0.30563176  0.66780453     0.13100
H295        H  0.52020893  0.28651929  0.48195858     0.12200
H296        H  0.52024417  0.33128884  0.49877278     0.11500
H297        H  0.53055603  0.36893402  0.54287597     0.16900
H298        H  0.54229567  0.35385977  0.65018082     0.12800
H299        H  0.53540413  0.22893811  0.60572164     0.15600
H300        H  0.53127160  0.24809875  0.49782151     0.15400
C301        C  0.54181975  0.45216820  0.38479831    -0.17500
C302        C  0.55312650  0.46318816  0.41807813    -0.19600
C303        C  0.56893463  0.45285118  0.43654191     0.21000
C304        C  0.57307884  0.43089093  0.42142532    -0.02600
C305        C  0.56163381  0.41973213  0.38772481    -0.05600
C306        C  0.54614496  0.43061606  0.36925797     0.21300
C307        C  0.56621301  0.39816128  0.37227031     0.19400
C308        C  0.58148870  0.38737717  0.39106562    -0.17100
C309        C  0.59250361  0.39815982  0.42458030    -0.19300
C310        C  0.58862604  0.42009023  0.43994878     0.20900
C311        C  0.59939488  0.43090128  0.47375826    -0.32300
C312        C  0.59480883  0.45241331  0.48938716     0.01600
C313        C  0.58002644  0.46361515  0.47014616    -0.23700
C314        C  0.53634966  0.42074469  0.33505445    -0.28300
C315        C  0.54239712  0.40059067  0.31856114     0.07300
C316        C  0.55655132  0.38870795  0.33783806    -0.26900
H317        H  0.52999479  0.46078784  0.37102940     0.12000
H318        H  0.54953703  0.47989791  0.42937260     0.13100
H319        H  0.58518417  0.37076708  0.37970424     0.12200
H320        H  0.60419861  0.38943286  0.43842173     0.11500
H321        H  0.61035671  0.42176543  0.48836525     0.16900
H322        H  0.57593142  0.47982772  0.48193834     0.12800
H323        H  0.52573169  0.43028089  0.32051823     0.15600
H324        H  0.56150404  0.37331766  0.32544145     0.15400
C325        C  0.47707182  0.75209895  0.12861490    -0.17500
C326        C  0.47911271  0.77872382  0.11942122    -0.19600
C327        C  0.47723501  0.78501197  0.08435487     0.21000
C328        C  0.47606542  0.76565893  0.05812913    -0.02600
C329        C  0.47439589  0.73902785  0.06738013    -0.05600
C330        C  0.47338097  0.73154338  0.10284217     0.21300
C331        C  0.47092697  0.71867017  0.04118377     0.19400
C332        C  0.47109365  0.72588097  0.00603818    -0.17100
C333        C  0.47238237  0.75208243  0.99689744    -0.19300
C334        C  0.47371307  0.77148450  0.02280008     0.20900
C335        C  0.46980044  0.79492404  0.01417841    -0.32300
C336        C  0.46762738  0.81216913  0.04045371     0.01600
C337        C  0.47354765  0.80858678  0.07523283    -0.23700
C338        C  0.46598080  0.70270743  0.11179974    -0.28300
C339        C  0.45997327  0.68162513  0.08565237     0.07300
C340        C  0.46456699  0.69038826  0.05057325    -0.26900
H341        H  0.47681702  0.74690874  0.15592441     0.12000
H342        H  0.48037548  0.79354243  0.13985111     0.13100
H343        H  0.46855987  0.71047522  0.98564034     0.12200
H344        H  0.47079728  0.75640360  0.96970314     0.11500
H345        H  0.46568171  0.79796698  0.98733040     0.16900
H346        H  0.47207197  0.82203027  0.09559847     0.12800
H347        H  0.46265955  0.69601622  0.13888530     0.15600
H348        H  0.45990004  0.67415707  0.03029100     0.15400
C349        C  0.50398983  0.54534241  0.17776881    -0.17500
C350        C  0.51760967  0.52957795  0.18687802    -0.19600
C351        C  0.50506550  0.49985985  0.17655155     0.21000
C352        C  0.47842546  0.48581580  0.15694680    -0.02600
C353        C  0.46460249  0.50173970  0.14780955    -0.05600
C354        C  0.47751369  0.53164292  0.15825379     0.21300
C355        C  0.43793629  0.48777235  0.12822745     0.19400
C356        C  0.42554336  0.45809306  0.11768373    -0.17100
C357        C  0.43925834  0.44232361  0.12669804    -0.19300
C358        C  0.46562651  0.45591396  0.14647394     0.20900
C359        C  0.47943836  0.44019041  0.15591887    -0.32300
C360        C  0.50613390  0.45415462  0.17526307     0.01600
C361        C  0.51875918  0.48400549  0.18541613    -0.23700
C362        C  0.46381301  0.54739877  0.14899514    -0.28300
C363        C  0.43713338  0.53368969  0.12967072     0.07300
C364        C  0.42425445  0.50377253  0.11947123    -0.26900
H365        H  0.51417410  0.56827305  0.18600143     0.12000
H366        H  0.53804709  0.54068850  0.20197879     0.13100
H367        H  0.40517896  0.44702814  0.10247737     0.12200
H368        H  0.42918978  0.41945906  0.11826262     0.11500
H369        H  0.46964135  0.41725020  0.14788179     0.16900
H370        H  0.53922029  0.49488839  0.20051441     0.12800
H371        H  0.47393467  0.57040325  0.15696424     0.15600
H372        H  0.40382512  0.49307171  0.10435662     0.15400
C373        C  0.46303751  0.72624125  0.52829627    -0.17500
C374        C  0.46296458  0.74605990  0.50412211    -0.19600
C375        C  0.46376828  0.77180021  0.51533082     0.21000
C376        C  0.46543649  0.77794568  0.55135398    -0.02600
C377        C  0.46593099  0.75808731  0.57581437    -0.05600
C378        C  0.46423027  0.73188041  0.56423525     0.21300
C379        C  0.46732025  0.76407976  0.61185790     0.19400
C380        C  0.46872530  0.79014010  0.62300366    -0.17100
C381        C  0.46781262  0.80954364  0.59887512    -0.19300
C382        C  0.46575556  0.80346628  0.56300291     0.20900
C383        C  0.46313825  0.82195890  0.53871653    -0.32300
C384        C  0.46076030  0.81565190  0.50273711     0.01600
C385        C  0.46193639  0.79092335  0.49127175    -0.23700
C386        C  0.46303319  0.71143888  0.58874070    -0.28300
C387        C  0.46371182  0.71679557  0.62489863     0.07300
C388        C  0.46644888  0.74356814  0.63609722    -0.26900
H389        H  0.46182301  0.70630011  0.51886895     0.12000
H390        H  0.46168461  0.74091960  0.47659606     0.13100
H391        H  0.46992881  0.79525156  0.65053565     0.12200
H392        H  0.46829895  0.82912215  0.60832961     0.11500
H393        H  0.46240860  0.84099052  0.54787182     0.16900
H394        H  0.45995626  0.78572743  0.46370052     0.12800
H395        H  0.46097115  0.69102162  0.57960911     0.15600
H396        H  0.46689429  0.74800711  0.66374862     0.15400
C397        C  0.48168746  0.50213953  0.64817895    -0.17500
C398        C  0.46834733  0.51862149  0.65489881    -0.19600
C399        C  0.48583158  0.54961038  0.65867068     0.21000
C400        C  0.51711885  0.56415340  0.65585016    -0.02600
C401        C  0.53060223  0.54750218  0.64873058    -0.05600
C402        C  0.51275595  0.51636060  0.64489674     0.21300
C403        C  0.56185445  0.56200946  0.64520909     0.19400
C404        C  0.57933534  0.59299157  0.64948043    -0.17100
C405        C  0.56600195  0.60945181  0.65692305    -0.19300
C406        C  0.53489274  0.59528980  0.65999972     0.20900
C407        C  0.52123884  0.61165352  0.66710561    -0.32300
C408        C  0.48998512  0.59728103  0.66960696     0.01600
C409        C  0.47252743  0.56624491  0.66524781    -0.23700
C410        C  0.52619066  0.49996156  0.63750164    -0.28300
C411        C  0.55726503  0.51420039  0.63323521     0.07300
C412        C  0.57498303  0.54530072  0.63722716    -0.26900
H413        H  0.46766376  0.47825187  0.64531277     0.12000
H414        H  0.44428832  0.50709594  0.65711468     0.13100
H415        H  0.60336372  0.60453549  0.64699767     0.12200
H416        H  0.58003186  0.63330398  0.66006330     0.11500
H417        H  0.53488353  0.63551740  0.67050826     0.16900
H418        H  0.44846397  0.55488480  0.66745612     0.12800
H419        H  0.51231270  0.47606805  0.63436785     0.15600
H420        H  0.59894368  0.55647701  0.63413784     0.15400
C421        C  0.38383804  0.63472649  0.87894664    -0.17500
C422        C  0.37448726  0.62386520  0.91281643    -0.19600
C423        C  0.38795102  0.61102884  0.93136592     0.21000
C424        C  0.41089567  0.60889329  0.91526474    -0.02600
C425        C  0.42066157  0.62028518  0.88123601    -0.05600
C426        C  0.40706555  0.63325506  0.86295412     0.21300
C427        C  0.44399127  0.61860973  0.86552128     0.19400
C428        C  0.45728730  0.60555056  0.88388579    -0.17100
C429        C  0.44756953  0.59419407  0.91739201    -0.19300
C430        C  0.42441803  0.59576216  0.93332516     0.20900
C431        C  0.41529119  0.58526804  0.96740315    -0.32300
C432        C  0.39348971  0.58857760  0.98448606     0.01600
C433        C  0.37957797  0.60112918  0.96599535    -0.23700
C434        C  0.41653928  0.64398974  0.82883942    -0.28300
C435        C  0.43943411  0.64186586  0.81258431     0.07300
C436        C  0.45323692  0.62944255  0.83150100    -0.26900
H437        H  0.37297550  0.64443543  0.86530912     0.12000
H438        H  0.35677183  0.62565478  0.92458271     0.13100
H439        H  0.47521770  0.60402992  0.87226728     0.12200
H440        H  0.45833273  0.58435286  0.93096139     0.11500
H441        H  0.42651904  0.57608833  0.98139070     0.16900
H442        H  0.36292829  0.60401234  0.97887968     0.12800
H443        H  0.40533779  0.65301535  0.81450199     0.15600
H444        H  0.47058479  0.62726941  0.81929358     0.15400
C445        C  0.69288958  0.28884423  0.34203054    -0.17500
C446        C  0.67172966  0.27008616  0.36657943    -0.19600
C447        C  0.67857330  0.27374731  0.40226600     0.21000
C448        C  0.70710714  0.29648391  0.41332375    -0.02600
C449        C  0.72847120  0.31560154  0.38847446    -0.05600
C450        C  0.72129587  0.31176488  0.35264888     0.21300
C451        C  0.75676091  0.33884698  0.39951685     0.19400
C452        C  0.76359919  0.34244550  0.43524826    -0.17100
C453        C  0.74255455  0.32337351  0.45980277    -0.19300
C454        C  0.71415645  0.30037510  0.44918691     0.20900
C455        C  0.69260625  0.28145547  0.47373724    -0.32300
C456        C  0.66392841  0.25887272  0.46290549     0.01600
C457        C  0.65725704  0.25523251  0.42702263    -0.23700
C458        C  0.74228771  0.33136179  0.32814909    -0.28300
C459        C  0.77024164  0.35524848  0.33893136     0.07300
C460        C  0.77739464  0.35850789  0.37475089    -0.26900
H461        H  0.68690230  0.28559872  0.31469026     0.12000
H462        H  0.64990481  0.25274824  0.35762460     0.13100
H463        H  0.78519601  0.36017821  0.44425732     0.12200
H464        H  0.74842803  0.32679335  0.48716980     0.11500
H465        H  0.69800110  0.28460792  0.50124660     0.16900
H466        H  0.63530569  0.23797581  0.41826040     0.12800
H467        H  0.73636244  0.32873958  0.30078455     0.15600
H468        H  0.79878717  0.37681982  0.38347920     0.15400
C469        C  0.69566384  0.47995420  0.29678214    -0.17500
C470        C  0.72270966  0.48273716  0.30591346    -0.19600
C471        C  0.74154655  0.48275638  0.28010454     0.21000
C472        C  0.73394434  0.48186359  0.24461527    -0.02600
C473        C  0.70623897  0.47811871  0.23544191    -0.05600
C474        C  0.68681613  0.47651939  0.26175314     0.21300
C475        C  0.69707748  0.47375199  0.20019904     0.19400
C476        C  0.71668887  0.47543516  0.17429307    -0.17100
C477        C  0.74450381  0.47992147  0.18330861    -0.19300
C478        C  0.75288442  0.48223952  0.21841628     0.20900
C479        C  0.77850238  0.48214389  0.22785083    -0.32300
C480        C  0.78408890  0.47933097  0.26296275     0.01600
C481        C  0.76641393  0.48100629  0.28908540    -0.23700
C482        C  0.65799660  0.46920350  0.25290746    -0.28300
C483        C  0.64773942  0.46202681  0.21833667     0.07300
C484        C  0.66777359  0.46569552  0.19182520    -0.26900
H485        H  0.68098431  0.47891187  0.31721513     0.12000
H486        H  0.72834330  0.48371560  0.33323378     0.13100
H487        H  0.71012034  0.47227839  0.14713177     0.12200
H488        H  0.75880501  0.48008560  0.16294386     0.11500
H489        H  0.79191968  0.48039010  0.20769316     0.16900
H490        H  0.77071392  0.47869193  0.31615432     0.12800
H491        H  0.64277256  0.46673198  0.27346700     0.15600
H492        H  0.66002470  0.46028673  0.16514311     0.15400
C493        C  0.68202436  0.47769874  0.76961616    -0.17500
C494        C  0.70390874  0.47999751  0.79246652    -0.19600
C495        C  0.73000287  0.48230096  0.77959562     0.21000
C496        C  0.73419767  0.48264945  0.74324543    -0.02600
C497        C  0.71225977  0.48074890  0.72013945    -0.05600
C498        C  0.68593635  0.47800403  0.73339359     0.21300
C499        C  0.71651101  0.48119209  0.68379692     0.19400
C500        C  0.74259916  0.48347346  0.67093660    -0.17100
C501        C  0.76407827  0.48490455  0.69376574    -0.19300
C502        C  0.76002617  0.48432057  0.72995738     0.20900
C503        C  0.78093104  0.48458243  0.75303661    -0.32300
C504        C  0.77668451  0.48373415  0.78933277     0.01600
C505        C  0.75150740  0.48336172  0.80238218    -0.23700
C506        C  0.66393194  0.47542008  0.71023003    -0.28300
C507        C  0.66801776  0.47600370  0.67385010     0.07300
C508        C  0.69452206  0.47905171  0.66095998    -0.26900
H509        H  0.66198144  0.47562136  0.78030016     0.12000
H510        H  0.70022086  0.47957573  0.82027605     0.13100
H511        H  0.74626865  0.48383835  0.64312410     0.12200
H512        H  0.78379694  0.48625486  0.68308181     0.11500
H513        H  0.80028153  0.48491111  0.74274077     0.16900
H514        H  0.74789635  0.48239272  0.83026277     0.12800
H515        H  0.64360610  0.47296693  0.72055168     0.15600
H516        H  0.69782110  0.47921379  0.63307059     0.15400
C517        C  0.71286247  0.27062137  0.85120735    -0.17500
C518        C  0.73666272  0.29797452  0.83989493    -0.19600
C519        C  0.75211562  0.32149749  0.86352774     0.21000
C520        C  0.74465513  0.31688061  0.89927909    -0.02600
C521        C  0.72021879  0.28959996  0.91051379    -0.05600
C522        C  0.70382532  0.26663933  0.88617724     0.21300
C523        C  0.71080961  0.28615987  0.94555316     0.19400
C524        C  0.72718766  0.30916219  0.96953281    -0.17100
C525        C  0.75186781  0.33596261  0.95858521    -0.19300
C526        C  0.76022928  0.34021957  0.92342572     0.20900
C527        C  0.78259626  0.36803000  0.91164271    -0.32300
C528        C  0.78834832  0.37329274  0.87592602     0.01600
C529        C  0.77360078  0.35000923  0.85190661    -0.23700
C530        C  0.67714391  0.24128024  0.89652035    -0.28300
C531        C  0.66595196  0.23944912  0.93029925     0.07300
C532        C  0.68377354  0.26094071  0.95527376    -0.26900
H533        H  0.70054774  0.25311943  0.83227013     0.12000
H534        H  0.74233011  0.30103191  0.81247721     0.13100
H535        H  0.72025936  0.30682709  0.99650734     0.12200
H536        H  0.76362404  0.35379541  0.97731820     0.11500
H537        H  0.79371141  0.38634442  0.92998302     0.16900
H538        H  0.77807398  0.35436502  0.82431692     0.12800
H539        H  0.66355046  0.22462804  0.87718648     0.15600
H540        H  0.67533945  0.25943951  0.98143787     0.15400
C541        C  0.77097429  0.41403899  0.07799520    -0.17500
C542        C  0.77162391  0.42125723  0.04273251    -0.19600
C543        C  0.79874285  0.44106658  0.02621637     0.21000
C544        C  0.82544651  0.45386192  0.04559431    -0.02600
C545        C  0.82480855  0.44641075  0.08116628    -0.05600
C546        C  0.79745836  0.42631362  0.09747665     0.21300
C547        C  0.85158786  0.45901926  0.10033076     0.19400
C548        C  0.87865643  0.47916836  0.08402528    -0.17100
C549        C  0.87929802  0.48644699  0.04888645    -0.19300
C550        C  0.85285950  0.47382182  0.02935434     0.20900
C551        C  0.85347777  0.48040791  0.99376121    -0.32300
C552        C  0.82703956  0.46732149  0.97393077     0.01600
C553        C  0.79969788  0.44787119  0.99058633    -0.23700
C554        C  0.79711068  0.41897303  0.13290911    -0.28300
C555        C  0.82384424  0.43136201  0.15220242     0.07300
C556        C  0.85092222  0.45139472  0.13547999    -0.26900
H557        H  0.74973180  0.39867497  0.08997687     0.12000
H558        H  0.75086259  0.41120070  0.02830937     0.13100
H559        H  0.89943069  0.48919579  0.09842686     0.12200
H560        H  0.90053783  0.50184129  0.03692139     0.11500
H561        H  0.87468894  0.49511645  0.98127975     0.16900
H562        H  0.77920493  0.43731101  0.97559147     0.12800
H563        H  0.77606408  0.40395722  0.14553137     0.15600
H564        H  0.87163930  0.46153137  0.15002673     0.15400
C565        C  0.25902171  0.73777894  0.94993490    -0.17500
C566        C  0.23717257  0.71798690  0.92634989    -0.19600
C567        C  0.24509830  0.71387797  0.89277920     0.21000
C568        C  0.27543605  0.72987049  0.88306032    -0.02600
C569        C  0.29752159  0.74949869  0.90704564    -0.05600
C570        C  0.28930660  0.75368431  0.94059114     0.21300
C571        C  0.32783026  0.76497778  0.89734907     0.19400
C572        C  0.33585656  0.76066677  0.86400891    -0.17100
C573        C  0.31403873  0.74159170  0.84019177    -0.19300
C574        C  0.28378491  0.72624118  0.84935325     0.20900
C575        C  0.26184180  0.70715065  0.82542649    -0.32300
C576        C  0.23161200  0.69071718  0.83490043     0.01600
C577        C  0.22338261  0.69400184  0.86880796    -0.23700
C578        C  0.31149214  0.77373075  0.96403088    -0.28300
C579        C  0.34181153  0.78951187  0.95433678     0.07300
C580        C  0.34964094  0.78466832  0.92098373    -0.26900
H581        H  0.25221305  0.74060180  0.97554315     0.12000
H582        H  0.21402303  0.70596185  0.93434930     0.13100
H583        H  0.35906000  0.77227536  0.85621384     0.12200
H584        H  0.32085090  0.73884340  0.81454751     0.11500
H585        H  0.26841307  0.70430804  0.79965448     0.16900
H586        H  0.20013326  0.68123963  0.87640275     0.12800
H587        H  0.30517197  0.77707424  0.98969361     0.15600
H588        H  0.37286073  0.79645894  0.91318817     0.15400
C589        C  0.29848429  0.56737423  0.78035122    -0.17500
C590        C  0.27118751  0.56425665  0.78900244    -0.19600
C591        C  0.25302545  0.56524712  0.76299650     0.21000
C592        C  0.26154205  0.56744572  0.72770823    -0.02600
C593        C  0.28941367  0.57141247  0.71906349    -0.05600
C594        C  0.30820707  0.57203597  0.74563511     0.21300
C595        C  0.29941148  0.57709002  0.68418801     0.19400
C596        C  0.28041010  0.57611597  0.65794108    -0.17100
C597        C  0.25244175  0.57139782  0.66639580    -0.19300
C598        C  0.24336141  0.56817054  0.70128779     0.20900
C599        C  0.21784355  0.56850908  0.71039545    -0.32300
C600        C  0.21140175  0.57020963  0.74557680     0.01600
C601        C  0.22797641  0.56677654  0.77175952    -0.23700
C602        C  0.33723659  0.57958954  0.73740330    -0.28300
C603        C  0.34817774  0.58804797  0.70333260     0.07300
C604        C  0.32891640  0.58571555  0.67658965    -0.26900
H605        H  0.31265185  0.56767794  0.80099333     0.12000
H606        H  0.26486612  0.56229737  0.81616498     0.13100
H607        H  0.28761750  0.58011751  0.63103084     0.12200
H608        H  0.23863528  0.57191704  0.64585054     0.11500
H609        H  0.20506623  0.57099534  0.69003036     0.16900
H610        H  0.22294918  0.56785922  0.79889987     0.12800
H611        H  0.35215054  0.58160200  0.75814721     0.15600
H612        H  0.33734613  0.59214557  0.65030921     0.15400
C613        C  0.98036348  0.48944228  0.80916760    -0.17500
C614        C  0.01094392  0.50328220  0.80270752    -0.19600
C615        C  0.02866425  0.53428627  0.79949336     0.21000
C616        C  0.01545334  0.55153697  0.80283700    -0.02600
C617        C  0.98464358  0.53759771  0.80954110    -0.05600
C618        C  0.96703415  0.50641000  0.81266957     0.21300
C619        C  0.97153319  0.55490968  0.81336553     0.19400
C620        C  0.98922806  0.58588877  0.81008455    -0.17100
C621        C  0.01970921  0.59968272  0.80314967    -0.19300
C622        C  0.03301738  0.58271887  0.79954959     0.20900
C623        C  0.06356848  0.59642324  0.79262123    -0.32300
C624        C  0.07688658  0.57939902  0.78916629     0.01600
C625        C  0.05931415  0.54834778  0.79283719    -0.23700
C626        C  0.93650596  0.49279069  0.81977228    -0.28300
C627        C  0.92345016  0.50998926  0.82439205     0.07300
C628        C  0.94105476  0.54099744  0.82086823    -0.26900
H629        H  0.96716599  0.46549120  0.81159390     0.12000
H630        H  0.02074331  0.48970698  0.80019133     0.13100
H631        H  0.97949689  0.59948738  0.81295127     0.12200
H632        H  0.03289111  0.62362433  0.80070743     0.11500
H633        H  0.07695426  0.62034047  0.78984004     0.16900
H634        H  0.06941253  0.53505204  0.79006465     0.12800
H635        H  0.92308768  0.46886564  0.82263426     0.15600
H636        H  0.93110251  0.55434819  0.82434305     0.15400
C637        C  0.32131268  0.58502549  0.26756679    -0.17500
C638        C  0.30033512  0.58416459  0.29084601    -0.19600
C639        C  0.27232024  0.57775261  0.27897567     0.21000
C640        C  0.26534395  0.57185172  0.24324341    -0.02600
C641        C  0.28644721  0.57241633  0.21975096    -0.05600
C642        C  0.31464920  0.57925553  0.23192296     0.21300
C643        C  0.27945177  0.56656236  0.18401542     0.19400
C644        C  0.25148799  0.56023311  0.17213116    -0.17100
C645        C  0.23077846  0.56000533  0.19526012    -0.19300
C646        C  0.23750173  0.56592016  0.23084309     0.20900
C647        C  0.21717208  0.56670170  0.25402708    -0.32300
C648        C  0.22406864  0.57303518  0.28967115     0.01600
C649        C  0.25151478  0.57790846  0.30199462    -0.23700
C650        C  0.33575568  0.58052093  0.20821127    -0.28300
C651        C  0.32899921  0.57473408  0.17239613     0.07300
C652        C  0.30061293  0.56752083  0.16070387    -0.26900
H653        H  0.34283316  0.59032889  0.27745075     0.12000
H654        H  0.30618357  0.58886684  0.31814888     0.13100
H655        H  0.24571117  0.55572982  0.14479290     0.12200
H656        H  0.20952180  0.55538865  0.18523514     0.11500
H657        H  0.19614185  0.56289087  0.24418469     0.16900
H658        H  0.25722355  0.58306112  0.32928261     0.12800
H659        H  0.35751737  0.58615761  0.21764105     0.15600
H660        H  0.29517170  0.56324477  0.13325340     0.15400
C661        C  0.24383258  0.73124102  0.44837096    -0.17500
C662        C  0.27043327  0.75663798  0.45898897    -0.19600
C663        C  0.29121093  0.77572147  0.43421908     0.21000
C664        C  0.28424749  0.77012293  0.39840257    -0.02600
C665        C  0.25790056  0.74400218  0.38769816    -0.05600
C666        C  0.23794060  0.72419371  0.41286334     0.21300
C667        C  0.25279509  0.73654883  0.35195507     0.19400
C668        C  0.27262112  0.75659269  0.32714924    -0.17100
C669        C  0.29823870  0.78295808  0.33770363    -0.19300
C670        C  0.30471190  0.78936092  0.37322489     0.20900
C671        C  0.33233994  0.81331595  0.38391283    -0.32300
C672        C  0.34058546  0.81711749  0.41919469     0.01600
C673        C  0.31965764  0.79894834  0.44442001    -0.23700
C674        C  0.21392587  0.69654135  0.40225737    -0.28300
C675        C  0.21083147  0.68767935  0.36716676     0.07300
C676        C  0.22943624  0.70821645  0.34191899    -0.26900
H677        H  0.22863572  0.71626182  0.46800475     0.12000
H678        H  0.27522961  0.76076543  0.48653999     0.13100
H679        H  0.26890493  0.75135974  0.29962897     0.12200
H680        H  0.31376976  0.79757641  0.31809551     0.11500
H681        H  0.34864452  0.82709727  0.36440989     0.16900
H682        H  0.32606392  0.80190024  0.47162444     0.12800
H683        H  0.19971920  0.68063814  0.42185607     0.15600
H684        H  0.22699382  0.70143242  0.31485211     0.15400
C685        C  0.01302959  0.55853686  0.32683802    -0.17500
C686        C  0.98238603  0.54374426  0.32048500    -0.19600
C687        C  0.96632716  0.51336913  0.31221445     0.21000
C688        C  0.98117722  0.49758619  0.31074456    -0.02600
C689        C  0.01209914  0.51246021  0.31760479    -0.05600
C690        C  0.02809475  0.54314555  0.32525946     0.21300
C691        C  0.02700939  0.49669923  0.31663261     0.19400
C692        C  0.01082424  0.46623100  0.30862826    -0.17100
C693        C  0.98024115  0.45158021  0.30127907    -0.19300
C694        C  0.96519731  0.46705592  0.30219956     0.20900
C695        C  0.93454009  0.45264579  0.29459357    -0.32300
C696        C  0.91964065  0.46833358  0.29604519     0.01600
C697        C  0.93572545  0.49861607  0.30513300    -0.23700
C698        C  0.05889542  0.55798027  0.33111650    -0.28300
C699        C  0.07395002  0.54250617  0.33027044     0.07300
C700        C  0.05781927  0.51176053  0.32348260    -0.26900
H701        H  0.02496930  0.58204565  0.33289855     0.12000
H702        H  0.97126640  0.55615396  0.32176999     0.13100
H703        H  0.02187546  0.45375685  0.30776172     0.12200
H704        H  0.96835649  0.42814181  0.29488207     0.11500
H705        H  0.92230907  0.42930533  0.28764524     0.16900
H706        H  0.92450134  0.51094756  0.30609933     0.12800
H707        H  0.07112458  0.58156471  0.33691545     0.15600
H708        H  0.06932741  0.49971504  0.32296549     0.15400
C709        C  0.11873041  0.59709232  0.57453715    -0.17500
C710        C  0.11798668  0.58841692  0.53984643    -0.19600
C711        C  0.14406098  0.59344115  0.52337972     0.21000
C712        C  0.17116966  0.60750881  0.54205344    -0.02600
C713        C  0.17192124  0.61630294  0.57709560    -0.05600
C714        C  0.14554764  0.61094686  0.59347426     0.21300
C715        C  0.19899675  0.63011352  0.59583241     0.19400
C716        C  0.22505763  0.63514978  0.57936475    -0.17100
C717        C  0.22437088  0.62672332  0.54462153    -0.19300
C718        C  0.19758888  0.61295070  0.52568976     0.20900
C719        C  0.19691439  0.60514126  0.49051325    -0.32300
C720        C  0.17010335  0.59159990  0.47147345     0.01600
C721        C  0.14363509  0.58527556  0.48837576    -0.23700
C722        C  0.14629020  0.61867453  0.62875483    -0.28300
C723        C  0.17304906  0.63156523  0.64802441     0.07300
C724        C  0.19942136  0.63782568  0.63098931    -0.26900
H725        H  0.09823630  0.59276547  0.58664313     0.12000
H726        H  0.09700370  0.57779247  0.52588416     0.13100
H727        H  0.24600897  0.64556894  0.59340505     0.12200
H728        H  0.24486356  0.63103197  0.53252147     0.11500
H729        H  0.21742856  0.61028425  0.47768373     0.16900
H730        H  0.12294523  0.57528818  0.47383105     0.12800
H731        H  0.12576704  0.61344425  0.64160011     0.15600
H732        H  0.22008324  0.64736637  0.64555642     0.15400
loop_ 
_geom_bond_atom_site_label_1 
_geom_bond_atom_site_label_2 
_geom_bond_distance 
_geom_bond_site_symmetry_2 
_ccdc_geom_bond_type 
O1            C4   1.261       .  A
O1           Cd6   2.455       .  S
C2           O11   1.268       .  A
C2            O7   1.267       .  A
C2          C699   1.479       .  S
O3            C9   1.269       .  A
O3           Cd6   2.524       .  S
C4           O12   1.265       .  A
C4          C675   1.474       .  S
C5           O10   1.265       .  A
C5            O8   1.266       .  A
C5          C720   1.487       .  S
Cd6          O13   2.497       .  S
Cd6          O12   2.492       .  S
Cd6          O11   2.482       .  S
Cd6           O7   2.453       .  S
Cd6          O10   2.483       .  S
Cd6           O8   2.488       .  S
C9           O13   1.265       .  A
C9          C648   1.495       .  S
O14          C17   1.264       .  A
O14         Cd19   2.504       .  S
C15          O24   1.267       .  A
C15          O20   1.268       .  A
C15         C723   1.490       .  S
O16          C22   1.265       .  A
O16         Cd19   2.500       .  S
C17          O25   1.268       .  A
C17         C576   1.487       .  S
C18          O23   1.268       .  A
C18          O21   1.268       .  A
C18         C624   1.478       .  S
Cd19         O26   2.420       .  S
Cd19         O25   2.502       .  S
Cd19         O24   2.490       .  S
Cd19         O20   2.485       .  S
Cd19         O23   2.452       .  S
Cd19         O21   2.451       .  S
C22          O26   1.258       .  A
C22         C600   1.474       .  S
O27          C30   1.265       .  A
O27         Cd32   2.441       .  S
C28          O37   1.260       .  A
C28          O33   1.265       .  A
C28         C528   1.457       .  S
O29          C35   1.266       .  A
O29         Cd32   2.493       .  S
C30          O38   1.269       .  A
C30         C627   1.477       .  S
C31          O36   1.270       .  A
C31          O34   1.265       .  A
C31         C504   1.487       .  S
Cd32         O39   2.496       .  S
Cd32         O38   2.466       .  S
Cd32         O37   2.412       .  S
Cd32         O33   2.464       .  S
Cd32         O36   2.512       .  S
Cd32         O34   2.471       .  S
C35          O39   1.267       .  A
C35         C552   1.493       .  S
O40          C43   1.265       .  A
O40         Cd45   2.478       .  S
C41          O50   1.264       .  A
C41          O46   1.269       .  A
C41         C555   1.495       .  S
O42          C48   1.262       .  A
O42         Cd45   2.473       .  S
C43          O51   1.272       .  A
C43         C459   1.495       .  S
C44          O49   1.268       .  A
C44          O47   1.269       .  A
C44         C696   1.482       .  S
Cd45         O52   2.454       .  S
Cd45         O51   2.529       .  S
Cd45         O50   2.462       .  S
Cd45         O46   2.542       .  S
Cd45         O49   2.442       .  S
Cd45         O47   2.484       .  S
C48          O52   1.260       .  A
C48         C480   1.467       .  S
O53          C56   1.272       .  A
O53         Cd58   2.552       .  S
C54          O63   1.267       .  A
C54          O59   1.268       .  A
C54         C435   1.498       .  S
O55          C61   1.264       .  A
O55         Cd58   2.486       .  S
C56          O64   1.265       .  A
C56         C387   1.501       .  S
C57          O62   1.267       .  A
C57          O60   1.269       .  A
C57         C408   1.487       .  S
Cd58         O65   2.437       .  S
Cd58         O64   2.492       .  S
Cd58         O63   2.496       .  S
Cd58         O59   2.515       .  S
Cd58         O62   2.455       .  S
Cd58         O60   2.501       .  S
C61          O65   1.259       .  A
C61         C603   1.470       .  S
O66          C69   1.271       .  A
O66         Cd71   2.529       .  S
C67          O76   1.269       .  A
C67          O72   1.267       .  A
C67         C432   1.494   1_554  S
O68          C74   1.260       .  A
O68         Cd71   2.447       .  S
C69          O77   1.264       .  A
C69         C651   1.496       .  S
C70          O75   1.266       .  A
C70          O73   1.268       .  A
C70         C363   1.486       .  S
Cd71         O78   2.491       .  S
Cd71         O77   2.492       .  S
Cd71         O76   2.524       .  S
Cd71         O72   2.476       .  S
Cd71         O75   2.462       .  S
Cd71         O73   2.503       .  S
C74          O78   1.264       .  A
C74         C339   1.473       .  S
O79          C82   1.271       .  A
O79         Cd84   2.522       .  S
C80          O89   1.267       .  A
C80          O85   1.266       .  A
C80         C312   1.494       .  S
O81          C87   1.264       .  A
O81         Cd84   2.472       .  S
C82          O90   1.265       .  A
C82         C507   1.494       .  S
C83          O88   1.267       .  A
C83          O86   1.268       .  A
C83         C411   1.488       .  S
Cd84         O91   2.452       .  S
Cd84         O90   2.484       .  S
Cd84         O89   2.491       .  S
Cd84         O85   2.507       .  S
Cd84         O88   2.467       .  S
Cd84         O86   2.504       .  S
C87          O91   1.262       .  A
C87         C288   1.473       .  S
O92          C95   1.268       .  A
O92         Cd97   2.521       .  S
C93         O102   1.267       .  A
C93          O98   1.267       .  A
C93         C315   1.491       .  S
O94         C100   1.257       .  A
O94         Cd97   2.410       .  S
C95         O103   1.264       .  A
C95         C264   1.491       .  S
C96         O101   1.266       .  A
C96          O99   1.269       .  A
C96         C360   1.485       .  S
Cd97        O104   2.535       .  S
Cd97        O103   2.498       .  S
Cd97        O102   2.494       .  S
Cd97         O98   2.482       .  S
Cd97        O101   2.463       .  S
Cd97         O99   2.497       .  S
C100        O104   1.266       .  A
C100        C483   1.477       .  S
O105        C108   1.266       .  A
O105       Cd110   2.472       .  S
C106        O115   1.265       .  A
C106        O111   1.262       .  A
C106        C672   1.471       .  S
O107        C113   1.266       .  A
O107       Cd110   2.488       .  S
C108        O116   1.267       .  A
C108        C219   1.486       .  S
C109        O114   1.269       .  A
C109        O112   1.265       .  A
C109        C384   1.494       .  S
Cd110       O117   2.504       .  S
Cd110       O116   2.488       .  S
Cd110       O115   2.483       .  S
Cd110       O111   2.448       .  S
Cd110       O114   2.527       .  S
Cd110       O112   2.491       .  S
C113        O117   1.266       .  A
C113        C243   1.491       .  S
O118        C121   1.271   1_554  A
O118       Cd123   2.532       .  S
C119        O128   1.265       .  A
C119        O124   1.270       .  A
C119        C240   1.485       .  S
O120        C126   1.264       .  A
O120       Cd123   2.459       .  S
C121        O129   1.265       .  A
C121        C579   1.492       .  S
C122        O127   1.265       .  A
C122        O125   1.266   1_556  A
C122        C192   1.477       .  S
Cd123       O130   2.462       .  S
Cd123       O129   2.454   1_554  S
Cd123       O128   2.440       .  S
Cd123       O124   2.494       .  S
Cd123       O127   2.467   1_554  S
Cd123       O125   2.454       .  S
C126        O130   1.259       .  A
C126        C336   1.471       .  S
O131        C134   1.270       .  A
O131       Cd136   2.531       .  S
C132        O141   1.266       .  A
C132        O137   1.266       .  A
C132        C171   1.485       .  S
O133        C139   1.264       .  A
O133       Cd136   2.463       .  S
C134        O142   1.265       .  A
C134        C456   1.493       .  S
C135        O140   1.266       .  A
C135        O138   1.267       .  A
C135        C216   1.477       .  S
Cd136       O143   2.466       .  S
Cd136       O142   2.464       .  S
Cd136       O141   2.482       .  S
Cd136       O137   2.478       .  S
Cd136       O140   2.451       .  S
Cd136       O138   2.472       .  S
C139        O143   1.261       .  A
C139        C291   1.468       .  S
O144        C147   1.266       .  A
O144       Cd149   2.445       .  S
C145        O154   1.265       .  A
C145        O150   1.260       .  A
C145        C531   1.473       .  S
O146        C152   1.267       .  A
O146       Cd149   2.465       .  S
C147        O155   1.267       .  A
C147        C195   1.476       .  S
C148        O153   1.268       .  A
C148        O151   1.265       .  A
C148        C267   1.490   1_556  S
Cd149       O156   2.447       .  S
Cd149       O155   2.455       .  S
Cd149       O154   2.476       .  S
Cd149       O150   2.443       .  S
Cd149       O153   2.520       .  S
Cd149       O151   2.458       .  S
C152        O156   1.265       .  A
C152        C168   1.479       .  S
C157        C158   1.399       .  A
C157        C162   1.404       .  A
C157        H173   1.084       .  S
C158        C159   1.403       .  A
C158        H174   1.083       .  S
C159        C169   1.404       .  A
C159        C160   1.412       .  A
C160        C166   1.411       .  A
C160        C161   1.413       .  A
C161        C163   1.411       .  A
C161        C162   1.411       .  A
C162        C170   1.405       .  A
C163        C172   1.405       .  A
C163        C164   1.404       .  A
C164        C165   1.400       .  A
C164        H175   1.083       .  S
C165        C166   1.404       .  A
C165        H176   1.084       .  S
C166        C167   1.403       .  A
C167        C168   1.408       .  A
C167        H177   1.085       .  S
C168        C169   1.406       .  A
C169        H178   1.084       .  S
C170        C171   1.408       .  A
C170        H179   1.084       .  S
C171        C172   1.409       .  A
C172        H180   1.084       .  S
C181        C182   1.399       .  A
C181        C186   1.404       .  A
C181        H197   1.083       .  S
C182        C183   1.404   1_545  A
C182        H198   1.084       .  S
C183        C193   1.404       .  A
C183        C184   1.412   1_565  A
C184        C190   1.411   1_545  A
C184        C185   1.411       .  A
C185        C187   1.412       .  A
C185        C186   1.411       .  A
C186        C194   1.402       .  A
C187        C196   1.402       .  A
C187        C188   1.403       .  A
C188        C189   1.398   1_545  A
C188        H199   1.084       .  S
C189        C190   1.403       .  A
C189        H200   1.083       .  S
C190        C191   1.401       .  A
C191        C192   1.405       .  A
C191        H201   1.083       .  S
C192        C193   1.407       .  A
C193        H202   1.085       .  S
C194        C195   1.407       .  A
C194        H203   1.084       .  S
C195        C196   1.405       .  A
C196        H204   1.084       .  S
C205        C206   1.399       .  A
C205        C210   1.404       .  A
C205        H221   1.084   1_545  S
C206        C207   1.403       .  A
C206        H222   1.083       .  S
C207        C217   1.402       .  A
C207        C208   1.411       .  A
C208        C214   1.412       .  A
C208        C209   1.413       .  A
C209        C211   1.411       .  A
C209        C210   1.411       .  A
C210        C218   1.404   1_545  A
C211        C220   1.406   1_545  A
C211        C212   1.404       .  A
C212        C213   1.400       .  A
C212        H223   1.083       .  S
C213        C214   1.404       .  A
C213        H224   1.084       .  S
C214        C215   1.405       .  A
C215        C216   1.406       .  A
C215        H225   1.084       .  S
C216        C217   1.406       .  A
C217        H226   1.084       .  S
C218        C219   1.408       .  A
C218        H227   1.084       .  S
C219        C220   1.409       .  A
C220        H228   1.084       .  S
C229        C230   1.402       .  A
C229        C234   1.405       .  A
C229        H245   1.083       .  S
C230        C231   1.404       .  A
C230        H246   1.084       .  S
C231        C241   1.408       .  A
C231        C232   1.412       .  A
C232        C238   1.410       .  A
C232        C233   1.416       .  A
C233        C235   1.412       .  A
C233        C234   1.411       .  A
C234        C242   1.409       .  A
C235        C244   1.405       .  A
C235        C236   1.404       .  A
C236        C237   1.399       .  A
C236        H247   1.084       .  S
C237        C238   1.404       .  A
C237        H248   1.083       .  S
C238        C239   1.403       .  A
C239        C240   1.409       .  A
C239        H249   1.083       .  S
C240        C241   1.408       .  A
C241        H250   1.084       .  S
C242        C243   1.411       .  A
C242        H251   1.084       .  S
C243        C244   1.408       .  A
C244        H252   1.084       .  S
C253        C254   1.399       .  A
C253        C258   1.404       .  A
C253        H269   1.083       .  S
C254        C255   1.404       .  A
C254        H270   1.084       .  S
C255        C265   1.407       .  A
C255        C256   1.413       .  A
C256        C262   1.411       .  A
C256        C257   1.417       .  A
C257        C259   1.413       .  A
C257        C258   1.410       .  A
C258        C266   1.403       .  A
C259        C268   1.411       .  A
C259        C260   1.405       .  A
C260        C261   1.403       .  A
C260        H271   1.084   1_554  S
C261        C262   1.406       .  A
C261        H272   1.083       .  S
C262        C263   1.410       .  A
C263        C264   1.411       .  A
C263        H273   1.083       .  S
C264        C265   1.407       .  A
C265        H274   1.085       .  S
C266        C267   1.408       .  A
C266        H275   1.084       .  S
C267        C268   1.410       .  A
C268        H276   1.084   1_554  S
C277        C278   1.398       .  A
C277        C282   1.404       .  A
C277        H293   1.083       .  S
C278        C279   1.403       .  A
C278        H294   1.084       .  S
C279        C289   1.403       .  A
C279        C280   1.413       .  A
C280        C286   1.411       .  A
C280        C281   1.410       .  A
C281        C283   1.413       .  A
C281        C282   1.411       .  A
C282        C290   1.400       .  A
C283        C292   1.402       .  A
C283        C284   1.402       .  A
C284        C285   1.398       .  A
C284        H295   1.084       .  S
C285        C286   1.404       .  A
C285        H296   1.083       .  S
C286        C287   1.400       .  A
C287        C288   1.407       .  A
C287        H297   1.084       .  S
C288        C289   1.404       .  A
C289        H298   1.085       .  S
C290        C291   1.405       .  A
C290        H299   1.084       .  S
C291        C292   1.402       .  A
C292        H300   1.085       .  S
C301        C302   1.400       .  A
C301        C306   1.404       .  A
C301        H317   1.083       .  S
C302        C303   1.404       .  A
C302        H318   1.084       .  S
C303        C313   1.407       .  A
C303        C304   1.411       .  A
C304        C310   1.412       .  A
C304        C305   1.418       .  A
C305        C307   1.412       .  A
C305        C306   1.411       .  A
C306        C314   1.407       .  A
C307        C316   1.410       .  A
C307        C308   1.405       .  A
C308        C309   1.403       .  A
C308        H319   1.084       .  S
C309        C310   1.406       .  A
C309        H320   1.083       .  S
C310        C311   1.411       .  A
C311        C312   1.412       .  A
C311        H321   1.083       .  S
C312        C313   1.409       .  A
C313        H322   1.084       .  S
C314        C315   1.410       .  A
C314        H323   1.084       .  S
C315        C316   1.410       .  A
C316        H324   1.084       .  S
C325        C326   1.399       .  A
C325        C330   1.404       .  A
C325        H341   1.083       .  S
C326        C327   1.404       .  A
C326        H342   1.084       .  S
C327        C337   1.402       .  A
C327        C328   1.411       .  A
C328        C334   1.412       .  A
C328        C329   1.409       .  A
C329        C331   1.411       .  A
C329        C330   1.413       .  A
C330        C338   1.404       .  A
C331        C340   1.398       .  A
C331        C332   1.403       .  A
C332        C333   1.396   1_554  A
C332        H343   1.085   1_554  S
C333        C334   1.402   1_556  A
C333        H344   1.082       .  S
C334        C335   1.398       .  A
C335        C336   1.402       .  A
C335        H345   1.083   1_554  S
C336        C337   1.407       .  A
C337        H346   1.085       .  S
C338        C339   1.405       .  A
C338        H347   1.084       .  S
C339        C340   1.405       .  A
C340        H348   1.086       .  S
C349        C350   1.399       .  A
C349        C354   1.403       .  A
C349        H365   1.083       .  S
C350        C351   1.403       .  A
C350        H366   1.084       .  S
C351        C361   1.404       .  A
C351        C352   1.412       .  A
C352        C358   1.412       .  A
C352        C353   1.415       .  A
C353        C355   1.412       .  A
C353        C354   1.411       .  A
C354        C362   1.403       .  A
C355        C364   1.409       .  A
C355        C356   1.405       .  A
C356        C357   1.402       .  A
C356        H367   1.084       .  S
C357        C358   1.405       .  A
C357        H368   1.083       .  S
C358        C359   1.408       .  A
C359        C360   1.408       .  A
C359        H369   1.083       .  S
C360        C361   1.407       .  A
C361        H370   1.085       .  S
C362        C363   1.407       .  A
C362        H371   1.084       .  S
C363        C364   1.409       .  A
C364        H372   1.084       .  S
C373        C374   1.403       .  A
C373        C378   1.406       .  A
C373        H389   1.083       .  S
C374        C375   1.404       .  A
C374        H390   1.084       .  S
C375        C385   1.411       .  A
C375        C376   1.413       .  A
C376        C382   1.411       .  A
C376        C377   1.420       .  A
C377        C379   1.413       .  A
C377        C378   1.410       .  A
C378        C386   1.411       .  A
C379        C388   1.413       .  A
C379        C380   1.405       .  A
C380        C381   1.403       .  A
C380        H391   1.084       .  S
C381        C382   1.405       .  A
C381        H392   1.083       .  S
C382        C383   1.410       .  A
C383        C384   1.411       .  A
C383        H393   1.084       .  S
C384        C385   1.409       .  A
C385        H394   1.085       .  S
C386        C387   1.413       .  A
C386        H395   1.083       .  S
C387        C388   1.410       .  A
C388        H396   1.085       .  S
C397        C398   1.399       .  A
C397        C402   1.403       .  A
C397        H413   1.083       .  S
C398        C399   1.403       .  A
C398        H414   1.084       .  S
C399        C409   1.403       .  A
C399        C400   1.411       .  A
C400        C406   1.412       .  A
C400        C401   1.416       .  A
C401        C403   1.412       .  A
C401        C402   1.411       .  A
C402        C410   1.404       .  A
C403        C412   1.410       .  A
C403        C404   1.405       .  A
C404        C405   1.403       .  A
C404        H415   1.084       .  S
C405        C406   1.405       .  A
C405        H416   1.083       .  S
C406        C407   1.410       .  A
C407        C408   1.409       .  A
C407        H417   1.083       .  S
C408        C409   1.408       .  A
C409        H418   1.085       .  S
C410        C411   1.408       .  A
C410        H419   1.084       .  S
C411        C412   1.410       .  A
C412        H420   1.084       .  S
C421        C422   1.405       .  A
C421        C426   1.406       .  A
C421        H437   1.083       .  S
C422        C423   1.405       .  A
C422        H438   1.084       .  S
C423        C433   1.414       .  A
C423        C424   1.413       .  A
C424        C430   1.410       .  A
C424        C425   1.420       .  A
C425        C427   1.412       .  A
C425        C426   1.411       .  A
C426        C434   1.413       .  A
C427        C436   1.409       .  A
C427        C428   1.404       .  A
C428        C429   1.400       .  A
C428        H439   1.084       .  S
C429        C430   1.404       .  A
C429        H440   1.083       .  S
C430        C431   1.406       .  A
C431        C432   1.410       .  A
C431        H441   1.084       .  S
C432        C433   1.411       .  A
C433        H442   1.084       .  S
C434        C435   1.413       .  A
C434        H443   1.083       .  S
C435        C436   1.410       .  A
C436        H444   1.085       .  S
C445        C446   1.401       .  A
C445        C450   1.404       .  A
C445        H461   1.084       .  S
C446        C447   1.404       .  A
C446        H462   1.084       .  S
C447        C457   1.406       .  A
C447        C448   1.410       .  A
C448        C454   1.413       .  A
C448        C449   1.419       .  A
C449        C451   1.410       .  A
C449        C450   1.413       .  A
C450        C458   1.409       .  A
C451        C460   1.410       .  A
C451        C452   1.406       .  A
C452        C453   1.403       .  A
C452        H463   1.083       .  S
C453        C454   1.405       .  A
C453        H464   1.084       .  S
C454        C455   1.412       .  A
C455        C456   1.410       .  A
C455        H465   1.084       .  S
C456        C457   1.410       .  A
C457        H466   1.084       .  S
C458        C459   1.408       .  A
C458        H467   1.084       .  S
C459        C460   1.413       .  A
C460        H468   1.084       .  S
C469        C470   1.397       .  A
C469        C474   1.404       .  A
C469        H485   1.083       .  S
C470        C471   1.402       .  A
C470        H486   1.084       .  S
C471        C481   1.403       .  A
C471        C472   1.415       .  A
C472        C478   1.409       .  A
C472        C473   1.410       .  A
C473        C475   1.414       .  A
C473        C474   1.409       .  A
C474        C482   1.397       .  A
C475        C484   1.406       .  A
C475        C476   1.403       .  A
C476        C477   1.399       .  A
C476        H487   1.084       .  S
C477        C478   1.404       .  A
C477        H488   1.083       .  S
C478        C479   1.399       .  A
C479        C480   1.405       .  A
C479        H489   1.084       .  S
C480        C481   1.402       .  A
C481        H490   1.085       .  S
C482        C483   1.408       .  A
C482        H491   1.084       .  S
C483        C484   1.405       .  A
C484        H492   1.084       .  S
C493        C494   1.402       .  A
C493        C498   1.406       .  A
C493        H509   1.083       .  S
C494        C495   1.404       .  A
C494        H510   1.084       .  S
C495        C505   1.409       .  A
C495        C496   1.412       .  A
C496        C502   1.411       .  A
C496        C497   1.418       .  A
C497        C499   1.412       .  A
C497        C498   1.411       .  A
C498        C506   1.409       .  A
C499        C508   1.409       .  A
C499        C500   1.404       .  A
C500        C501   1.401       .  A
C500        H511   1.084       .  S
C501        C502   1.405       .  A
C501        H512   1.083       .  S
C502        C503   1.408       .  A
C503        C504   1.409       .  A
C503        H513   1.084       .  S
C504        C505   1.407       .  A
C505        H514   1.084       .  S
C506        C507   1.412       .  A
C506        H515   1.084       .  S
C507        C508   1.408       .  A
C508        H516   1.085       .  S
C517        C518   1.398       .  A
C517        C522   1.404       .  A
C517        H533   1.083       .  S
C518        C519   1.402       .  A
C518        H534   1.084       .  S
C519        C529   1.403       .  A
C519        C520   1.415       .  A
C520        C526   1.410       .  A
C520        C521   1.407       .  A
C521        C523   1.413       .  A
C521        C522   1.410       .  A
C522        C530   1.400       .  A
C523        C532   1.399       .  A
C523        C524   1.402       .  A
C524        C525   1.395       .  A
C524        H535   1.084       .  S
C525        C526   1.402       .  A
C525        H536   1.084       .  S
C526        C527   1.394       .  A
C527        C528   1.402       .  A
C527        H537   1.086       .  S
C528        C529   1.400       .  A
C529        H538   1.085       .  S
C530        C531   1.408       .  A
C530        H539   1.084       .  S
C531        C532   1.403       .  A
C532        H540   1.085       .  S
C541        C542   1.404       .  A
C541        C546   1.406       .  A
C541        H557   1.083       .  S
C542        C543   1.406       .  A
C542        H558   1.084       .  S
C543        C553   1.410   1_554  A
C543        C544   1.411       .  A
C544        C550   1.412       .  A
C544        C545   1.419       .  A
C545        C547   1.410       .  A
C545        C546   1.413       .  A
C546        C554   1.414       .  A
C547        C556   1.405       .  A
C547        C548   1.404       .  A
C548        C549   1.400       .  A
C548        H559   1.084       .  S
C549        C550   1.404       .  A
C549        H560   1.083       .  S
C550        C551   1.408   1_554  A
C551        C552   1.409       .  A
C551        H561   1.084       .  S
C552        C553   1.412       .  A
C553        H562   1.084       .  S
C554        C555   1.411       .  A
C554        H563   1.084       .  S
C555        C556   1.410       .  A
C556        H564   1.084       .  S
C565        C566   1.405       .  A
C565        C570   1.406       .  A
C565        H581   1.083       .  S
C566        C567   1.406       .  A
C566        H582   1.083       .  S
C567        C577   1.413       .  A
C567        C568   1.412       .  A
C568        C574   1.412       .  A
C568        C569   1.417       .  A
C569        C571   1.410       .  A
C569        C570   1.412       .  A
C570        C578   1.413       .  A
C571        C580   1.403       .  A
C571        C572   1.403       .  A
C572        C573   1.398       .  A
C572        H583   1.084       .  S
C573        C574   1.403       .  A
C573        H584   1.083       .  S
C574        C575   1.404       .  A
C575        C576   1.405       .  A
C575        H585   1.084       .  S
C576        C577   1.411       .  A
C577        H586   1.084       .  S
C578        C579   1.411       .  A
C578        H587   1.084       .  S
C579        C580   1.409       .  A
C580        H588   1.084       .  S
C589        C590   1.398       .  A
C589        C594   1.404       .  A
C589        H605   1.083       .  S
C590        C591   1.403       .  A
C590        H606   1.084       .  S
C591        C601   1.404       .  A
C591        C592   1.414       .  A
C592        C598   1.409       .  A
C592        C593   1.409       .  A
C593        C595   1.414       .  A
C593        C594   1.410       .  A
C594        C602   1.399       .  A
C595        C604   1.402       .  A
C595        C596   1.402       .  A
C596        C597   1.397       .  A
C596        H607   1.084       .  S
C597        C598   1.404       .  A
C597        H608   1.083       .  S
C598        C599   1.397       .  A
C599        C600   1.407       .  A
C599        H609   1.084       .  S
C600        C601   1.404       .  A
C601        H610   1.084       .  S
C602        C603   1.406       .  A
C602        H611   1.084       .  S
C603        C604   1.403       .  A
C604        H612   1.084       .  S
C613        C614   1.399   1_655  A
C613        C618   1.404       .  A
C613        H629   1.083       .  S
C614        C615   1.403       .  A
C614        H630   1.085       .  S
C615        C625   1.403       .  A
C615        C616   1.412       .  A
C616        C622   1.411       .  A
C616        C617   1.411   1_455  A
C617        C619   1.412       .  A
C617        C618   1.411       .  A
C618        C626   1.402       .  A
C619        C628   1.402       .  A
C619        C620   1.403       .  A
C620        C621   1.398   1_655  A
C620        H631   1.084       .  S
C621        C622   1.403       .  A
C621        H632   1.082       .  S
C622        C623   1.401       .  A
C623        C624   1.406       .  A
C623        H633   1.083       .  S
C624        C625   1.407       .  A
C625        H634   1.085       .  S
C626        C627   1.408       .  A
C626        H635   1.084       .  S
C627        C628   1.404       .  A
C628        H636   1.084       .  S
C637        C638   1.403       .  A
C637        C642   1.406       .  A
C637        H653   1.083       .  S
C638        C639   1.405       .  A
C638        H654   1.084       .  S
C639        C649   1.411       .  A
C639        C640   1.412       .  A
C640        C646   1.411       .  A
C640        C641   1.419       .  A
C641        C643   1.412       .  A
C641        C642   1.411       .  A
C642        C650   1.411       .  A
C643        C652   1.409       .  A
C643        C644   1.404       .  A
C644        C645   1.402       .  A
C644        H655   1.084       .  S
C645        C646   1.405       .  A
C645        H656   1.083       .  S
C646        C647   1.409       .  A
C647        C648   1.410       .  A
C647        H657   1.084       .  S
C648        C649   1.410       .  A
C649        H658   1.084       .  S
C650        C651   1.413       .  A
C650        H659   1.084       .  S
C651        C652   1.408       .  A
C652        H660   1.084       .  S
C661        C662   1.399       .  A
C661        C666   1.404       .  A
C661        H677   1.084       .  S
C662        C663   1.403       .  A
C662        H678   1.083       .  S
C663        C673   1.406       .  A
C663        C664   1.414       .  A
C664        C670   1.410       .  A
C664        C665   1.411       .  A
C665        C667   1.414       .  A
C665        C666   1.410       .  A
C666        C674   1.401       .  A
C667        C676   1.404       .  A
C667        C668   1.403       .  A
C668        C669   1.398       .  A
C668        H679   1.084       .  S
C669        C670   1.403       .  A
C669        H680   1.084       .  S
C670        C671   1.399       .  A
C671        C672   1.405       .  A
C671        H681   1.085       .  S
C672        C673   1.404       .  A
C673        H682   1.084       .  S
C674        C675   1.407       .  A
C674        H683   1.085       .  S
C675        C676   1.404       .  A
C676        H684   1.084       .  S
C685        C686   1.397   1_455  A
C685        C690   1.403       .  A
C685        H701   1.083       .  S
C686        C687   1.403       .  A
C686        H702   1.084       .  S
C687        C697   1.401       .  A
C687        C688   1.411       .  A
C688        C694   1.412       .  A
C688        C689   1.413   1_655  A
C689        C691   1.412       .  A
C689        C690   1.411       .  A
C690        C698   1.401       .  A
C691        C700   1.408       .  A
C691        C692   1.405       .  A
C692        C693   1.402   1_455  A
C692        H703   1.084       .  S
C693        C694   1.405       .  A
C693        H704   1.083       .  S
C694        C695   1.408       .  A
C695        C696   1.409       .  A
C695        H705   1.083       .  S
C696        C697   1.406       .  A
C697        H706   1.085       .  S
C698        C699   1.405       .  A
C698        H707   1.084       .  S
C699        C700   1.407       .  A
C700        H708   1.084       .  S
C709        C710   1.402       .  A
C709        C714   1.405       .  A
C709        H725   1.084       .  S
C710        C711   1.405       .  A
C710        H726   1.083       .  S
C711        C721   1.408       .  A
C711        C712   1.411       .  A
C712        C718   1.412       .  A
C712        C713   1.417       .  A
C713        C715   1.411       .  A
C713        C714   1.412       .  A
C714        C722   1.409       .  A
C715        C724   1.406       .  A
C715        C716   1.404       .  A
C716        C717   1.400       .  A
C716        H727   1.083       .  S
C717        C718   1.403       .  A
C717        H728   1.084       .  S
C718        C719   1.407       .  A
C719        C720   1.407       .  A
C719        H729   1.085       .  S
C720        C721   1.410       .  A
C721        H730   1.083       .  S
C722        C723   1.410       .  A
C722        H731   1.084       .  S
C723        C724   1.409       .  A
C724        H732   1.084       .  S
