geometry optimzed in LAMMPS
_audit_creation_date              2020-12-01 
_audit_creation_method            'lammps2cif' 
_symmetry_space_group_name_H-M    'P1' 
_symmetry_Int_Tables_number       1 
_symmetry_cell_setting            triclinic 
loop_ 
_symmetry_equiv_pos_as_xyz 
  x,y,z 
_cell_length_a                    29.69768819 
_cell_length_b                    28.95006810155307 
_cell_length_c                    27.9932701954458 
_cell_angle_alpha                 85.97552418457322 
_cell_angle_beta                  93.25146225151427 
_cell_angle_gamma                 89.74164500737471 
loop_ 
_atom_site_label 
_atom_site_type_symbol 
_atom_site_fract_x 
_atom_site_fract_y 
_atom_site_fract_z 
_atom_site_charge 
O1          O  0.44429617  0.08576922  0.22788750    -0.75600
O2          O  0.06777387  0.09363389  0.28310313    -0.75600
O3          O  0.48478498  0.08911285  0.31448629    -0.75600
O4          O  0.02785132  0.07842728  0.19502208    -0.75700
O5          O  0.03214577  0.15473663  0.17878301    -0.75600
O6          O  0.47580065  0.16548989  0.30150948    -0.75600
O7          O  0.06077279  0.17011899  0.26837364    -0.75600
O8          O  0.44740727  0.16189191  0.21007769    -0.75600
Ni9        Ni  0.00650179  0.08387632  0.25515922     1.25400
Ni10       Ni  0.50404443  0.16598074  0.23902933     1.22400
C11         C  0.42548874  0.12481123  0.21230250     0.86600
C12         C  0.08278990  0.13530443  0.28672918     0.86600
C13         C  0.46965374  0.12681324  0.32672428     0.86600
C14         C  0.04015460  0.11264675  0.16862340     0.86800
C15         C  0.39469755  0.13997038  0.43202644     0.85400
C16         C  0.35717407  0.11595266  0.40552139    -0.54900
C17         C  0.37117204  0.07999316  0.38066070     0.08300
C18         C  0.42355213  0.07226843  0.38561237     0.19200
C19         C  0.42135892  0.10203198  0.46380035    -0.55600
C20         C  0.43824942  0.06690275  0.44012490     0.08400
C21         C  0.42652940  0.15609485  0.39275005    -0.55100
C22         C  0.44182417  0.12093641  0.36843504     0.09000
H23         H  0.32182898  0.12373714  0.40989882     0.13500
H24         H  0.43477059  0.04289633  0.36563431    -0.00800
H25         H  0.42699682  0.10344253  0.50238447     0.13800
H26         H  0.43548224  0.19201964  0.38453738     0.13600
O27         O  0.31327683  0.04009123  0.33369591    -0.75600
O28         O  0.19172628  0.48832979  0.34690076    -0.75600
O29         O  0.23090425  0.07350224  0.33951023    -0.75600
O30         O  0.27371880  0.45437956  0.32800849    -0.75700
O31         O  0.29053949  0.44234666  0.40644734    -0.75600
O32         O  0.23679234  0.06635370  0.41929895    -0.75600
O33         O  0.20832717  0.48011958  0.42560082    -0.75600
O34         O  0.32242498  0.02834190  0.41321410    -0.75600
Ni35       Ni  0.25201737  0.01404811  0.33416549     1.25400
Ni36       Ni  0.26528252  0.00385131  0.41904268     1.25400
C37         C  0.33615016  0.04498959  0.37382759     0.86600
C38         C  0.18062574  0.47637845  0.39033124     0.86600
C39         C  0.22227205  0.08841720  0.37926211     0.86600
C40         C  0.29144807  0.42944715  0.36292770     0.86800
O41         O  0.31213600  0.45697653  0.16894152    -0.75600
O42         O  0.19141986  0.01242786  0.16584516    -0.75600
O43         O  0.22863414  0.42551792  0.17022709    -0.75600
O44         O  0.27588619  0.04219551  0.17551982    -0.75700
O45         O  0.27647190  0.05315594  0.09580567    -0.75600
O46         O  0.22170143  0.43117121  0.09017896    -0.75600
O47         O  0.19348817  0.01669303  0.08607193    -0.75600
O48         O  0.30569885  0.46857601  0.08915275    -0.75600
Ni49       Ni  0.25209408  0.48394922  0.17324015     1.25400
Ni50       Ni  0.24950145  0.49252814  0.08745595     1.25400
C51         C  0.32730645  0.45347836  0.12698493     0.86600
C52         C  0.17398650  0.02460939  0.12328741     0.86600
C53         C  0.21375162  0.41047772  0.13125471     0.86600
C54         C  0.28565416  0.06645705  0.13841111     0.86800
C55         C  0.31155477  0.10841744  0.14963999     0.85400
C56         C  0.28483850  0.14305025  0.17661579    -0.54900
C57         C  0.30894507  0.17979800  0.19262482     0.08300
C58         C  0.35866550  0.17853175  0.17628042     0.19200
C59         C  0.33042469  0.13636246  0.10808515    -0.55600
C60         C  0.35606808  0.17288573  0.12147065     0.08400
C61         C  0.35297127  0.09424115  0.18264585    -0.55100
C62         C  0.37827694  0.13039539  0.19542587     0.09000
H63         H  0.24958496  0.13777467  0.18376142     0.13500
H64         H  0.37894942  0.20875595  0.18643900    -0.00800
H65         H  0.32319426  0.12891849  0.07089384     0.13800
H66         H  0.36387378  0.05847416  0.19065705     0.13600
O67         O  0.33982695  0.31069020  0.02926851    -0.75600
O68         O  0.34186655  0.19391960  0.46727396    -0.75600
O69         O  0.33281887  0.22104801  0.05833491    -0.75600
O70         O  0.33442987  0.28358588  0.44043800    -0.75700
O71         O  0.40962058  0.28645015  0.44510674    -0.75600
O72         O  0.40768354  0.21579556  0.06957122    -0.75600
O73         O  0.41671297  0.19752826  0.47821852    -0.75600
O74         O  0.41486447  0.30495867  0.03668866    -0.75600
Ni75       Ni  0.33429354  0.25206070  0.99898031     1.25400
Ni76       Ni  0.41501922  0.25112481  0.00776289     1.25400
C77         C  0.37921538  0.32675336  0.04149855     0.86600
C78         C  0.38216313  0.17877962  0.46080543     0.86600
C79         C  0.36744368  0.20670337  0.08302170     0.86600
C80         C  0.37059317  0.29665236  0.42334632     0.86800
C81         C  0.38726465  0.36981331  0.30852420     0.85400
C82         C  0.39963856  0.34178830  0.35584984    -0.54900
C83         C  0.36437191  0.32448782  0.37826060     0.08300
C84         C  0.31770717  0.33855296  0.35297431     0.19200
C85         C  0.35627069  0.33822054  0.27904289    -0.55600
C86         C  0.31999740  0.31964535  0.30160911     0.08400
C87         C  0.35758280  0.40831558  0.32239211    -0.55100
C88         C  0.32158130  0.39294353  0.34756041     0.09000
H89         H  0.43411845  0.33572219  0.37040568     0.13500
H90         H  0.28807724  0.32593147  0.37237548    -0.00800
H91         H  0.36470854  0.32896544  0.24366923     0.13800
H92         H  0.36507554  0.44470770  0.31468681     0.13600
C93         C  0.36792221  0.42829430  0.11526219     0.85400
C94         C  0.39529104  0.40060746  0.15414545    -0.54900
C95         C  0.43126209  0.37762826  0.13768946     0.08300
C96         C  0.43470368  0.38493857  0.08221555     0.19200
C97         C  0.40136876  0.46011122  0.08851084    -0.55600
C98         C  0.43603100  0.43808959  0.06881763     0.08400
C99         C  0.35277829  0.39257768  0.08050592    -0.55100
C100        C  0.38689740  0.36966707  0.06373470     0.09000
H101        H  0.39004032  0.40360252  0.19188742     0.13500
H102        H  0.46316120  0.36547911  0.06895641    -0.00800
H103        H  0.39617290  0.49734664  0.08319704     0.13800
H104        H  0.31766635  0.38348929  0.07300561     0.13600
O105        O  0.47856282  0.33511470  0.19905256    -0.75600
O106        O  0.03645367  0.35123603  0.32585831    -0.75600
O107        O  0.45254415  0.34210457  0.28494399    -0.75600
O108        O  0.06374828  0.33388524  0.23996036    -0.75700
O109        O  0.06700846  0.41005175  0.22130398    -0.75600
O110        O  0.44667580  0.41865587  0.27034778    -0.75600
O111        O  0.03180722  0.42724509  0.30638054    -0.75600
O112        O  0.48369159  0.41165595  0.18410490    -0.75600
Ni113      Ni  0.00810746  0.33786131  0.26315376     1.25400
Ni114      Ni  0.00742646  0.41987599  0.24515302     1.25400
C115        C  0.46919772  0.37283296  0.17275023     0.86600
C116        C  0.04420355  0.39363414  0.33544609     0.86600
C117        C  0.43049817  0.37923502  0.28560980     0.86600
C118        C  0.08285250  0.36841739  0.22060454     0.86800
C119        C  0.12359644  0.14841644  0.31650536     0.85400
C120        C  0.10895883  0.18054422  0.35341931    -0.54900
C121        C  0.14322503  0.19587479  0.38129007     0.08300
C122        C  0.19102875  0.17785453  0.36933171     0.19200
C123        C  0.15924598  0.17597310  0.28789387    -0.55600
C124        C  0.19465873  0.19283746  0.31501330     0.08400
C125        C  0.14894123  0.10987229  0.34621666    -0.55100
C126        C  0.18563813  0.12387253  0.37367282     0.09000
H127        H  0.07384889  0.18857224  0.35877469     0.13500
H128        H  0.21950831  0.18988275  0.39258567    -0.00800
H129        H  0.15668128  0.18129837  0.24902475     0.13800
H130        H  0.14186517  0.07365413  0.34112802     0.13600
C131        C  0.13791563  0.45177014  0.40371252     0.85400
C132        C  0.11019667  0.43470510  0.36189841    -0.54900
C133        C  0.07473740  0.40767229  0.37460767     0.08300
C134        C  0.06941274  0.40159277  0.42930806     0.19200
C135        C  0.10370971  0.47766060  0.43322805    -0.55600
C136        C  0.06693368  0.45176059  0.44712934     0.08400
C137        C  0.15132495  0.40770952  0.43505024    -0.55100
C138        C  0.11634165  0.38134080  0.44815582     0.09000
H139        H  0.11794281  0.44310761  0.32479797     0.13500
H140        H  0.04017495  0.37971888  0.43864106    -0.00800
H141        H  0.10880096  0.51307033  0.44261010     0.13800
H142        H  0.18608640  0.39658591  0.44341449     0.13600
C143        C  0.12090586  0.35456388  0.19311817     0.85400
C144        C  0.10388755  0.32152012  0.15578778    -0.54900
C145        C  0.13696924  0.30558587  0.13030002     0.08300
C146        C  0.18482009  0.32355332  0.14493131     0.19200
C147        C  0.15827846  0.32752257  0.22460145    -0.55600
C148        C  0.19179444  0.30976953  0.19970993     0.08400
C149        C  0.14393906  0.39235099  0.16414840    -0.55100
C150        C  0.17820323  0.37677641  0.13863211     0.09000
H151        H  0.06850232  0.31377459  0.14823747     0.13500
H152        H  0.21235344  0.31180893  0.12342891    -0.00800
H153        H  0.15621337  0.32061595  0.26301573     0.13800
H154        H  0.13723561  0.42888585  0.16773475     0.13600
C155        C  0.13280953  0.05268986  0.11051960     0.85400
C156        C  0.10685633  0.07125625  0.14976916    -0.54900
C157        C  0.07113127  0.09917691  0.13300618     0.08300
C158        C  0.06450550  0.10428541  0.07742066     0.19200
C159        C  0.09815062  0.02748709  0.07876981    -0.55600
C160        C  0.06207265  0.05372380  0.06063762     0.08400
C161        C  0.14633729  0.09579876  0.08011193    -0.55100
C162        C  0.11145583  0.12286518  0.06290160     0.09000
H163        H  0.11531424  0.06256725  0.18763581     0.13500
H164        H  0.03503966  0.12629198  0.06426273    -0.00800
H165        H  0.10139199  0.99103829  0.07237196     0.13800
H166        H  0.18120544  0.10528005  0.07472903     0.13600
O167        O  0.16165787  0.31493724  0.48226945    -0.75600
O168        O  0.15866986  0.18621540  0.03414067    -0.75600
O169        O  0.16939719  0.23075402  0.44787554    -0.75600
O170        O  0.16456626  0.26926519  0.06928229    -0.75700
O171        O  0.08971971  0.27691314  0.06447921    -0.75600
O172        O  0.09446786  0.22650135  0.43894612    -0.75600
O173        O  0.08363706  0.19238435  0.02921229    -0.75600
O174        O  0.08674887  0.31139310  0.47303219    -0.75600
Ni175      Ni  0.16635276  0.25025099  0.00862365     1.25400
Ni176      Ni  0.08571714  0.25183300  0.00101977     1.25400
C177        C  0.12270071  0.33380025  0.46937011     0.86600
C178        C  0.11893133  0.16912439  0.04052061     0.86600
C179        C  0.13451598  0.21976145  0.42411580     0.86600
C180        C  0.12881007  0.28175946  0.08656050     0.86800
C181        C  0.46773519  0.46633254  0.03469064     0.85400
C182        C  0.00264066  0.44112339  0.00570117    -0.54900
C183        C  0.02897930  0.46996062  0.47708680     0.08300
C184        C  0.01639624  0.02260889  0.48080722     0.19200
C185        C  0.99637330  0.50088106  0.06251728    -0.55600
C186        C  0.02239948  0.03035185  0.03569923     0.08400
C187        C  0.44010070  0.49655852  0.99602190    -0.55100
C188        C  0.46393482  0.02673624  0.46785923     0.09000
H189        H  0.00670002  0.40379396  0.00844558     0.13500
H190        H  0.03650772  0.04698888  0.45844380    -0.00800
H191        H  0.99865648  0.99936623  0.10148750     0.13800
H192        H  0.40343908  0.49666294  0.49358880     0.13600
C193        C  0.28639056  0.21468505  0.22498548     0.85400
C194        C  0.25988208  0.18914580  0.26441246    -0.54900
C195        C  0.23489444  0.21600445  0.29127457     0.08300
C196        C  0.24181841  0.26943414  0.27765459     0.19200
C197        C  0.25108506  0.24664187  0.19635589    -0.55600
C198        C  0.22774935  0.27604146  0.22275364     0.08400
C199        C  0.31654723  0.24847584  0.25244859    -0.55100
C200        C  0.29433088  0.27852422  0.27993892     0.09000
H201        H  0.25725396  0.15164170  0.26758932     0.13500
H202        H  0.22329514  0.29228554  0.30008754    -0.00800
H203        H  0.24504460  0.24528810  0.15790810     0.13800
H204        H  0.35274199  0.24935261  0.24926619     0.13600
O205        O  0.44429617  0.08576919  0.72788746    -0.75600
O206        O  0.06777389  0.09363388  0.78310309    -0.75600
O207        O  0.48478495  0.08911287  0.81448625    -0.75600
O208        O  0.02785123  0.07842725  0.69502215    -0.75700
O209        O  0.03214573  0.15473659  0.67878308    -0.75600
O210        O  0.47580057  0.16548991  0.80150948    -0.75600
O211        O  0.06077292  0.17011899  0.76837358    -0.75600
O212        O  0.44740715  0.16189192  0.71007785    -0.75600
Ni213      Ni  0.00650179  0.08387631  0.75515925     1.25400
Ni214      Ni  0.50404434  0.16598074  0.73902939     1.22400
C215        C  0.42548869  0.12481121  0.71230252     0.86600
C216        C  0.08278997  0.13530441  0.78672914     0.86600
C217        C  0.46965374  0.12681325  0.82672428     0.86600
C218        C  0.04015451  0.11264670  0.66862346     0.86800
C219        C  0.39469763  0.13997035  0.93202645     0.85400
C220        C  0.35717416  0.11595264  0.90552137    -0.54900
C221        C  0.37117214  0.07999314  0.88066067     0.08300
C222        C  0.42355225  0.07226842  0.88561237     0.19200
C223        C  0.42135894  0.10203191  0.96380036    -0.55600
C224        C  0.43824954  0.06690275  0.94012490     0.08400
C225        C  0.42652944  0.15609483  0.89275006    -0.55100
C226        C  0.44182425  0.12093642  0.86843507     0.09000
H227        H  0.32182908  0.12373715  0.90989880     0.13500
H228        H  0.43477078  0.04289637  0.86563432    -0.00800
H229        H  0.42699672  0.10344237  0.00238454     0.13800
H230        H  0.43548215  0.19201968  0.88453735     0.13600
O231        O  0.31327676  0.04009127  0.83369599    -0.75600
O232        O  0.19172621  0.48832980  0.84690072    -0.75600
O233        O  0.23090413  0.07350222  0.83951020    -0.75600
O234        O  0.27371881  0.45437960  0.82800844    -0.75700
O235        O  0.29053943  0.44234664  0.90644730    -0.75600
O236        O  0.23679234  0.06635371  0.91929892    -0.75600
O237        O  0.20832718  0.48011961  0.92560077    -0.75600
O238        O  0.32242509  0.02834187  0.91321416    -0.75600
Ni239      Ni  0.25201731  0.01404811  0.83416547     1.25400
Ni240      Ni  0.26528254  0.00385132  0.91904267     1.25400
C241        C  0.33615022  0.04498958  0.87382763     0.86600
C242        C  0.18062573  0.47637845  0.89033122     0.86600
C243        C  0.22227201  0.08841720  0.87926209     0.86600
C244        C  0.29144807  0.42944719  0.86292765     0.86800
O245        O  0.31213606  0.45697649  0.66894163    -0.75600
O246        O  0.19141982  0.01242783  0.66584516    -0.75600
O247        O  0.22863423  0.42551789  0.67022710    -0.75600
O248        O  0.27588616  0.04219556  0.67551993    -0.75700
O249        O  0.27647204  0.05315589  0.59580574    -0.75600
O250        O  0.22170155  0.43117121  0.59017895    -0.75600
O251        O  0.19348819  0.01669300  0.58607192    -0.75600
O252        O  0.30569897  0.46857605  0.58915284    -0.75600
Ni253      Ni  0.25209410  0.48394920  0.67324026     1.25400
Ni254      Ni  0.24950155  0.49252814  0.58745599     1.25400
C255        C  0.32730653  0.45347834  0.62698502     0.86600
C256        C  0.17398649  0.02460938  0.62328740     0.86600
C257        C  0.21375170  0.41047773  0.63125469     0.86600
C258        C  0.28565420  0.06645705  0.63841118     0.86800
C259        C  0.31155473  0.10841747  0.64964000     0.85400
C260        C  0.28483843  0.14305025  0.67661579    -0.54900
C261        C  0.30894502  0.17979798  0.69262489     0.08300
C262        C  0.35866545  0.17853175  0.67628050     0.19200
C263        C  0.33042461  0.13636259  0.60808519    -0.55600
C264        C  0.35606802  0.17288583  0.62147071     0.08400
C265        C  0.35297125  0.09424118  0.68264581    -0.55100
C266        C  0.37827691  0.13039538  0.69542585     0.09000
H267        H  0.24958489  0.13777465  0.68376137     0.13500
H268        H  0.37894931  0.20875596  0.68643921    -0.00800
H269        H  0.32319418  0.12891866  0.57089383     0.13800
H270        H  0.36387377  0.05847415  0.69065698     0.13600
O271        O  0.33982697  0.31069020  0.52926852    -0.75600
O272        O  0.34186669  0.19391961  0.96727394    -0.75600
O273        O  0.33281888  0.22104803  0.55833496    -0.75600
O274        O  0.33442993  0.28358587  0.94043799    -0.75700
O275        O  0.40962061  0.28645017  0.94510671    -0.75600
O276        O  0.40768357  0.21579556  0.56957125    -0.75600
O277        O  0.41671308  0.19752828  0.97821852    -0.75600
O278        O  0.41486451  0.30495867  0.53668861    -0.75600
Ni279      Ni  0.33429346  0.25206070  0.49898033     1.25400
Ni280      Ni  0.41501925  0.25112479  0.50776289     1.25400
C281        C  0.37921542  0.32675336  0.54149851     0.86600
C282        C  0.38216325  0.17877960  0.96080544     0.86600
C283        C  0.36744370  0.20670344  0.58302176     0.86600
C284        C  0.37059320  0.29665237  0.92334629     0.86800
C285        C  0.38726463  0.36981334  0.80852415     0.85400
C286        C  0.39963852  0.34178831  0.85584978    -0.54900
C287        C  0.36437188  0.32448785  0.87826057     0.08300
C288        C  0.31770714  0.33855306  0.85297429     0.19200
C289        C  0.35627065  0.33822055  0.77904284    -0.55600
C290        C  0.31999731  0.31964542  0.80160910     0.08400
C291        C  0.35758285  0.40831565  0.82239208    -0.55100
C292        C  0.32158133  0.39294361  0.84756040     0.09000
H293        H  0.43411841  0.33572216  0.87040563     0.13500
H294        H  0.28807715  0.32593167  0.87237551    -0.00800
H295        H  0.36470853  0.32896538  0.74366925     0.13800
H296        H  0.36507564  0.44470775  0.81468678     0.13600
C297        C  0.36792226  0.42829429  0.61526220     0.85400
C298        C  0.39529113  0.40060745  0.65414541    -0.54900
C299        C  0.43126214  0.37762824  0.63768941     0.08300
C300        C  0.43470374  0.38493858  0.58221551     0.19200
C301        C  0.40136877  0.46011122  0.58851082    -0.55600
C302        C  0.43603102  0.43808961  0.56881762     0.08400
C303        C  0.35277836  0.39257768  0.58050591    -0.55100
C304        C  0.38689746  0.36966707  0.56373466     0.09000
H305        H  0.39004042  0.40360245  0.69188741     0.13500
H306        H  0.46316126  0.36547913  0.56895636    -0.00800
H307        H  0.39617285  0.49734661  0.58319698     0.13800
H308        H  0.31766638  0.38348932  0.57300560     0.13600
O309        O  0.47856284  0.33511469  0.69905250    -0.75600
O310        O  0.03645380  0.35123603  0.82585824    -0.75600
O311        O  0.45254404  0.34210455  0.78494390    -0.75600
O312        O  0.06374836  0.33388523  0.73996033    -0.75700
O313        O  0.06700839  0.41005176  0.72130395    -0.75600
O314        O  0.44667587  0.41865587  0.77034780    -0.75600
O315        O  0.03180704  0.42724509  0.80638057    -0.75600
O316        O  0.48369154  0.41165597  0.68410493    -0.75600
Ni317      Ni  0.00810754  0.33786131  0.76315373     1.25400
Ni318      Ni  0.00742638  0.41987598  0.74515298     1.25400
C319        C  0.46919774  0.37283297  0.67275021     0.86600
C320        C  0.04420352  0.39363415  0.83544608     0.86600
C321        C  0.43049815  0.37923504  0.78560975     0.86600
C322        C  0.08285251  0.36841742  0.72060451     0.86800
C323        C  0.12359647  0.14841643  0.81650534     0.85400
C324        C  0.10895887  0.18054421  0.85341930    -0.54900
C325        C  0.14322507  0.19587480  0.88129004     0.08300
C326        C  0.19102875  0.17785451  0.86933168     0.19200
C327        C  0.15924596  0.17597311  0.78789385    -0.55600
C328        C  0.19465872  0.19283744  0.81501329     0.08400
C329        C  0.14894125  0.10987228  0.84621661    -0.55100
C330        C  0.18563812  0.12387253  0.87367281     0.09000
H331        H  0.07384889  0.18857221  0.85877468     0.13500
H332        H  0.21950834  0.18988274  0.89258569    -0.00800
H333        H  0.15668121  0.18129839  0.74902473     0.13800
H334        H  0.14186520  0.07365413  0.84112790     0.13600
C335        C  0.13791566  0.45177012  0.90371254     0.85400
C336        C  0.11019663  0.43470514  0.86189841    -0.54900
C337        C  0.07473738  0.40767233  0.87460765     0.08300
C338        C  0.06941278  0.40159276  0.92930806     0.19200
C339        C  0.10370981  0.47766057  0.93322818    -0.55600
C340        C  0.06693373  0.45176056  0.94712938     0.08400
C341        C  0.15132504  0.40770949  0.93505021    -0.55100
C342        C  0.11634172  0.38134079  0.94815578     0.09000
H343        H  0.11794273  0.44310772  0.82479796     0.13500
H344        H  0.04017502  0.37971890  0.93864104    -0.00800
H345        H  0.10880114  0.51307022  0.94261029     0.13800
H346        H  0.18608644  0.39658597  0.94341449     0.13600
C347        C  0.12090587  0.35456390  0.69311813     0.85400
C348        C  0.10388758  0.32152015  0.65578774    -0.54900
C349        C  0.13696925  0.30558588  0.63030000     0.08300
C350        C  0.18482008  0.32355333  0.64493130     0.19200
C351        C  0.15827844  0.32752256  0.72460141    -0.55600
C352        C  0.19179444  0.30976952  0.69970988     0.08400
C353        C  0.14393912  0.39235101  0.66414839    -0.55100
C354        C  0.17820327  0.37677642  0.63863207     0.09000
H355        H  0.06850222  0.31377459  0.64823743     0.13500
H356        H  0.21235343  0.31180888  0.62342883    -0.00800
H357        H  0.15621330  0.32061595  0.76301567     0.13800
H358        H  0.13723570  0.42888586  0.66773477     0.13600
C359        C  0.13280953  0.05268989  0.61051956     0.85400
C360        C  0.10685630  0.07125629  0.64976914    -0.54900
C361        C  0.07113118  0.09917686  0.63300620     0.08300
C362        C  0.06450544  0.10428536  0.57742066     0.19200
C363        C  0.09815064  0.02748711  0.57876975    -0.55600
C364        C  0.06207264  0.05372377  0.56063759     0.08400
C365        C  0.14633725  0.09579879  0.58011189    -0.55100
C366        C  0.11145577  0.12286518  0.56290158     0.09000
H367        H  0.11531427  0.06256734  0.68763578     0.13500
H368        H  0.03503961  0.12629189  0.56426270    -0.00800
H369        H  0.10139208  0.99103830  0.57237189     0.13800
H370        H  0.18120544  0.10528009  0.57472897     0.13600
O371        O  0.16165792  0.31493725  0.98226944    -0.75600
O372        O  0.15866976  0.18621540  0.53414064    -0.75600
O373        O  0.16939721  0.23075401  0.94787554    -0.75600
O374        O  0.16456632  0.26926520  0.56928227    -0.75700
O375        O  0.08971974  0.27691313  0.56447927    -0.75600
O376        O  0.09446792  0.22650136  0.93894602    -0.75600
O377        O  0.08363693  0.19238435  0.52921235    -0.75600
O378        O  0.08674895  0.31139311  0.97303208    -0.75600
Ni379      Ni  0.16635278  0.25025098  0.50862365     1.25400
Ni380      Ni  0.08571707  0.25183299  0.50101987     1.25400
C381        C  0.12270077  0.33380026  0.96937007     0.86600
C382        C  0.11893121  0.16912439  0.54052059     0.86600
C383        C  0.13451605  0.21976145  0.92411575     0.86600
C384        C  0.12881012  0.28175946  0.58656051     0.86800
C385        C  0.46773515  0.46633258  0.53469063     0.85400
C386        C  0.00264070  0.44112341  0.50570123    -0.54900
C387        C  0.02897928  0.46996058  0.97708674     0.08300
C388        C  0.01639626  0.02260888  0.98080720     0.19200
C389        C  0.99637321  0.50088112  0.56251728    -0.55600
C390        C  0.02239943  0.03035186  0.53569924     0.08400
C391        C  0.44010055  0.49655854  0.49602194    -0.55100
C392        C  0.46393492  0.02673623  0.96785920     0.09000
H393        H  0.00670010  0.40379398  0.50844562     0.13500
H394        H  0.03650779  0.04698883  0.95844380    -0.00800
H395        H  0.99865638  0.99936617  0.60148751     0.13800
H396        H  0.40343913  0.49666295  0.99358874     0.13600
C397        C  0.28639056  0.21468504  0.72498556     0.85400
C398        C  0.25988209  0.18914581  0.76441252    -0.54900
C399        C  0.23489442  0.21600444  0.79127459     0.08300
C400        C  0.24181833  0.26943414  0.77765459     0.19200
C401        C  0.25108514  0.24664191  0.69635590    -0.55600
C402        C  0.22774937  0.27604148  0.72275361     0.08400
C403        C  0.31654713  0.24847583  0.75244875    -0.55100
C404        C  0.29433081  0.27852425  0.77993898     0.09000
H405        H  0.25725405  0.15164169  0.76758935     0.13500
H406        H  0.22329499  0.29228554  0.80008747    -0.00800
H407        H  0.24504479  0.24528815  0.65790809     0.13800
H408        H  0.35274204  0.24935259  0.74926645     0.13600
O409        O  0.44429618  0.58576930  0.22788750    -0.75600
O410        O  0.06777387  0.59363393  0.28310310    -0.75600
O411        O  0.48478499  0.58911272  0.31448629    -0.75600
O412        O  0.02785117  0.57842729  0.19502205    -0.75700
O413        O  0.03214564  0.65473662  0.17878298    -0.75600
O414        O  0.47580066  0.66548976  0.30150949    -0.75600
O415        O  0.06077279  0.67011903  0.26837362    -0.75600
O416        O  0.44740726  0.66189199  0.21007769    -0.75600
Ni417      Ni  0.00650176  0.58387633  0.25515921     1.25400
Ni418      Ni  0.50404444  0.66598078  0.23902933     1.22400
C419        C  0.42548874  0.62481131  0.21230249     0.86600
C420        C  0.08278990  0.63530447  0.28672917     0.86600
C421        C  0.46965375  0.62681310  0.32672429     0.86600
C422        C  0.04015448  0.61264674  0.16862339     0.86800
C423        C  0.39469756  0.63997038  0.43202644     0.85400
C424        C  0.35717408  0.61595260  0.40552140    -0.54900
C425        C  0.37117205  0.57999312  0.38066068     0.08300
C426        C  0.42355213  0.57226838  0.38561238     0.19200
C427        C  0.42135893  0.60203199  0.46380036    -0.55600
C428        C  0.43824942  0.56690273  0.44012492     0.08400
C429        C  0.42652939  0.65609475  0.39275003    -0.55100
C430        C  0.44182418  0.62093634  0.36843504     0.09000
H431        H  0.32182895  0.62373704  0.40989886     0.13500
H432        H  0.43477059  0.54289629  0.36563430    -0.00800
H433        H  0.42699683  0.60344259  0.50238446     0.13800
H434        H  0.43548223  0.69201970  0.38453730     0.13600
O435        O  0.31327687  0.54009111  0.33369590    -0.75600
O436        O  0.19172631  0.98832969  0.34690076    -0.75600
O437        O  0.23090414  0.57350223  0.33951022    -0.75600
O438        O  0.27371885  0.95437959  0.32800849    -0.75700
O439        O  0.29053947  0.94234658  0.40644734    -0.75600
O440        O  0.23679235  0.56635379  0.41929895    -0.75600
O441        O  0.20832719  0.98011946  0.42560081    -0.75600
O442        O  0.32242497  0.52834196  0.41321412    -0.75600
Ni443      Ni  0.25201734  0.51404811  0.33416549     1.25400
Ni444      Ni  0.26528251  0.50385141  0.41904268     1.25400
C445        C  0.33615020  0.54498953  0.37382758     0.86600
C446        C  0.18062574  0.97637841  0.39033123     0.86600
C447        C  0.22227197  0.58841722  0.37926211     0.86600
C448        C  0.29144809  0.92944716  0.36292769     0.86800
O449        O  0.31213602  0.95697659  0.16894153    -0.75600
O450        O  0.19141988  0.51242789  0.16584516    -0.75600
O451        O  0.22863416  0.92551795  0.17022709    -0.75600
O452        O  0.27588620  0.54219549  0.17551982    -0.75700
O453        O  0.27647189  0.55315595  0.09580568    -0.75600
O454        O  0.22170143  0.93117125  0.09017896    -0.75600
O455        O  0.19348817  0.51669303  0.08607194    -0.75600
O456        O  0.30569881  0.96857589  0.08915275    -0.75600
Ni457      Ni  0.25209408  0.98394924  0.17324015     1.25400
Ni458      Ni  0.24950145  0.99252813  0.08745595     1.25400
C459        C  0.32730643  0.95347830  0.12698495     0.86600
C460        C  0.17398650  0.52460940  0.12328742     0.86600
C461        C  0.21375163  0.91047775  0.13125471     0.86600
C462        C  0.28565415  0.56645705  0.13841111     0.86800
C463        C  0.31155475  0.60841746  0.14964000     0.85400
C464        C  0.28483849  0.64305031  0.17661579    -0.54900
C465        C  0.30894508  0.67979806  0.19262481     0.08300
C466        C  0.35866549  0.67853179  0.17628041     0.19200
C467        C  0.33042463  0.63636249  0.10808515    -0.55600
C468        C  0.35606802  0.67288577  0.12147063     0.08400
C469        C  0.35297127  0.59424118  0.18264584    -0.55100
C470        C  0.37827694  0.63039542  0.19542584     0.09000
H471        H  0.24958495  0.63777476  0.18376141     0.13500
H472        H  0.37894943  0.70875596  0.18643895    -0.00800
H473        H  0.32319419  0.62891847  0.07089383     0.13800
H474        H  0.36387378  0.55847416  0.19065704     0.13600
O475        O  0.33982695  0.81069022  0.02926850    -0.75600
O476        O  0.34186656  0.69391960  0.46727395    -0.75600
O477        O  0.33281887  0.72104802  0.05833491    -0.75600
O478        O  0.33442985  0.78358583  0.44043800    -0.75700
O479        O  0.40962055  0.78645021  0.44510671    -0.75600
O480        O  0.40768353  0.71579564  0.06957125    -0.75600
O481        O  0.41671298  0.69752835  0.47821850    -0.75600
O482        O  0.41486447  0.80495876  0.03668865    -0.75600
Ni483      Ni  0.33429352  0.75206070  0.99898031     1.25400
Ni484      Ni  0.41501921  0.75112489  0.00776290     1.25400
C485        C  0.37921538  0.82675343  0.04149852     0.86600
C486        C  0.38216315  0.67877965  0.46080541     0.86600
C487        C  0.36744367  0.70670342  0.08302171     0.86600
C488        C  0.37059313  0.79665236  0.42334630     0.86800
C489        C  0.38726464  0.86981338  0.30852421     0.85400
C490        C  0.39963851  0.84178835  0.35584984    -0.54900
C491        C  0.36437185  0.82448788  0.37826060     0.08300
C492        C  0.31770714  0.83855306  0.35297429     0.19200
C493        C  0.35627067  0.83822062  0.27904289    -0.55600
C494        C  0.31999736  0.81964543  0.30160910     0.08400
C495        C  0.35758282  0.90831567  0.32239210    -0.55100
C496        C  0.32158130  0.89294361  0.34756037     0.09000
H497        H  0.43411838  0.83572216  0.37040566     0.13500
H498        H  0.28807716  0.82593160  0.37237545    -0.00800
H499        H  0.36470854  0.82896553  0.24366924     0.13800
H500        H  0.36507558  0.94470779  0.31468681     0.13600
C501        C  0.36792222  0.92829428  0.11526223     0.85400
C502        C  0.39529103  0.90060732  0.15414546    -0.54900
C503        C  0.43126209  0.87762816  0.13768943     0.08300
C504        C  0.43470369  0.88493864  0.08221552     0.19200
C505        C  0.40136875  0.96011127  0.08851092    -0.55600
C506        C  0.43603099  0.93808969  0.06881766     0.08400
C507        C  0.35277833  0.89257773  0.08050591    -0.55100
C508        C  0.38689740  0.86966716  0.06373464     0.09000
H509        H  0.39004028  0.90360227  0.19188743     0.13500
H510        H  0.46316120  0.86547921  0.06895632    -0.00800
H511        H  0.39617284  0.99734668  0.08319711     0.13800
H512        H  0.31766635  0.88348932  0.07300566     0.13600
O513        O  0.47856280  0.83511459  0.19905259    -0.75600
O514        O  0.03645367  0.85123605  0.32585828    -0.75600
O515        O  0.45254414  0.84210463  0.28494401    -0.75600
O516        O  0.06374827  0.83388513  0.23996037    -0.75700
O517        O  0.06700846  0.91005164  0.22130399    -0.75600
O518        O  0.44667580  0.91865592  0.27034778    -0.75600
O519        O  0.03180723  0.92724512  0.30638056    -0.75600
O520        O  0.48369159  0.91165584  0.18410490    -0.75600
Ni521      Ni  0.00810746  0.83786132  0.26315375     1.25400
Ni522      Ni  0.00742647  0.91987600  0.24515301     1.25400
C523        C  0.46919772  0.87283284  0.17275023     0.86600
C524        C  0.04420357  0.89363416  0.33544609     0.86600
C525        C  0.43049817  0.87923508  0.28560981     0.86600
C526        C  0.08285249  0.86841729  0.22060455     0.86800
C527        C  0.12359643  0.64841649  0.31650535     0.85400
C528        C  0.10895883  0.68054429  0.35341931    -0.54900
C529        C  0.14322504  0.69587485  0.38129007     0.08300
C530        C  0.19102874  0.67785454  0.36933171     0.19200
C531        C  0.15924597  0.67597315  0.28789387    -0.55600
C532        C  0.19465875  0.69283745  0.31501330     0.08400
C533        C  0.14894120  0.60987238  0.34621666    -0.55100
C534        C  0.18563808  0.62387256  0.37367284     0.09000
H535        H  0.07384891  0.68857230  0.35877473     0.13500
H536        H  0.21950836  0.68988269  0.39258571    -0.00800
H537        H  0.15668133  0.68129840  0.24902475     0.13800
H538        H  0.14186508  0.57365415  0.34112800     0.13600
C539        C  0.13791561  0.95177020  0.40371252     0.85400
C540        C  0.11019667  0.93470512  0.36189841    -0.54900
C541        C  0.07473743  0.90767226  0.37460767     0.08300
C542        C  0.06941277  0.90159284  0.42930807     0.19200
C543        C  0.10370970  0.97766072  0.43322803    -0.55600
C544        C  0.06693367  0.95176068  0.44712931     0.08400
C545        C  0.15132495  0.90770961  0.43505026    -0.55100
C546        C  0.11634166  0.88134088  0.44815586     0.09000
H547        H  0.11794281  0.94310762  0.32479799     0.13500
H548        H  0.04017494  0.87971896  0.43864112    -0.00800
H549        H  0.10880096  0.01307038  0.44261009     0.13800
H550        H  0.18608638  0.89658599  0.44341449     0.13600
C551        C  0.12090585  0.85456384  0.19311818     0.85400
C552        C  0.10388761  0.82152005  0.15578781    -0.54900
C553        C  0.13696927  0.80558590  0.13030001     0.08300
C554        C  0.18482010  0.82355338  0.14493132     0.19200
C555        C  0.15827848  0.82752262  0.22460146    -0.55600
C556        C  0.19179446  0.80976959  0.19970994     0.08400
C557        C  0.14393904  0.89235100  0.16414840    -0.55100
C558        C  0.17820323  0.87677645  0.13863212     0.09000
H559        H  0.06850232  0.81377441  0.14823747     0.13500
H560        H  0.21235347  0.81180905  0.12342888    -0.00800
H561        H  0.15621342  0.82061603  0.26301576     0.13800
H562        H  0.13723558  0.92888583  0.16773479     0.13600
C563        C  0.13280951  0.55268984  0.11051960     0.85400
C564        C  0.10685631  0.57125626  0.14976918    -0.54900
C565        C  0.07113122  0.59917689  0.13300621     0.08300
C566        C  0.06450547  0.60428539  0.07742069     0.19200
C567        C  0.09815060  0.52748707  0.07876980    -0.55600
C568        C  0.06207262  0.55372377  0.06063760     0.08400
C569        C  0.14633727  0.59579870  0.08011191    -0.55100
C570        C  0.11145581  0.62286514  0.06290163     0.09000
H571        H  0.11531429  0.56256731  0.18763583     0.13500
H572        H  0.03503967  0.62629202  0.06426276    -0.00800
H573        H  0.10139197  0.49103830  0.07237192     0.13800
H574        H  0.18120542  0.60527992  0.07472892     0.13600
O575        O  0.16165788  0.81493724  0.48226947    -0.75600
O576        O  0.15866988  0.68621528  0.03414062    -0.75600
O577        O  0.16939720  0.73075403  0.44787553    -0.75600
O578        O  0.16456627  0.76926518  0.06928228    -0.75700
O579        O  0.08971972  0.77691324  0.06447919    -0.75600
O580        O  0.09446787  0.72650145  0.43894611    -0.75600
O581        O  0.08363709  0.69238438  0.02921231    -0.75600
O582        O  0.08674888  0.81139319  0.47303220    -0.75600
Ni583      Ni  0.16635277  0.75025094  0.00862365     1.25400
Ni584      Ni  0.08571715  0.75183307  0.00101978     1.25400
C585        C  0.12270073  0.83380031  0.46937013     0.86600
C586        C  0.11893133  0.66912433  0.04052059     0.86600
C587        C  0.13451599  0.71976153  0.42411578     0.86600
C588        C  0.12881009  0.78175953  0.08656047     0.86800
C589        C  0.46773514  0.96633267  0.03469065     0.85400
C590        C  0.00264068  0.94112352  0.00570119    -0.54900
C591        C  0.02897931  0.96996072  0.47708679     0.08300
C592        C  0.01639624  0.52260881  0.48080723     0.19200
C593        C  0.99637326  0.00088122  0.06251727    -0.55600
C594        C  0.02239950  0.53035172  0.03569923     0.08400
C595        C  0.44010066  0.99655860  0.99602187    -0.55100
C596        C  0.46393482  0.52673619  0.46785924     0.09000
H597        H  0.00670003  0.90379409  0.00844558     0.13500
H598        H  0.03650773  0.54698878  0.45844378    -0.00800
H599        H  0.99865648  0.49936606  0.10148751     0.13800
H600        H  0.40343907  0.99666298  0.49358876     0.13600
C601        C  0.28639058  0.71468510  0.22498546     0.85400
C602        C  0.25988212  0.68914586  0.26441243    -0.54900
C603        C  0.23489446  0.71600442  0.29127456     0.08300
C604        C  0.24181840  0.76943413  0.27765462     0.19200
C605        C  0.25108506  0.74664194  0.19635589    -0.55600
C606        C  0.22774936  0.77604150  0.22275366     0.08400
C607        C  0.31654724  0.74847592  0.25244858    -0.55100
C608        C  0.29433087  0.77852426  0.27993894     0.09000
H609        H  0.25725401  0.65164162  0.26758926     0.13500
H610        H  0.22329508  0.79228545  0.30008761    -0.00800
H611        H  0.24504456  0.74528820  0.15790809     0.13800
H612        H  0.35274200  0.74935274  0.24926616     0.13600
O613        O  0.44429616  0.58576926  0.72788747    -0.75600
O614        O  0.06777390  0.59363393  0.78310309    -0.75600
O615        O  0.48478495  0.58911273  0.81448625    -0.75600
O616        O  0.02785123  0.57842726  0.69502216    -0.75700
O617        O  0.03214576  0.65473659  0.67878309    -0.75600
O618        O  0.47580058  0.66548977  0.80150949    -0.75600
O619        O  0.06077289  0.67011904  0.76837360    -0.75600
O620        O  0.44740711  0.66189200  0.71007786    -0.75600
Ni621      Ni  0.00650180  0.58387633  0.75515924     1.25400
Ni622      Ni  0.50404433  0.66598077  0.73902939     1.22400
C623        C  0.42548866  0.62481128  0.71230255     0.86600
C624        C  0.08278995  0.63530447  0.78672914     0.86600
C625        C  0.46965375  0.62681311  0.82672429     0.86600
C626        C  0.04015451  0.61264670  0.66862346     0.86800
C627        C  0.39469764  0.63997035  0.93202645     0.85400
C628        C  0.35717417  0.61595258  0.90552138    -0.54900
C629        C  0.37117215  0.57999310  0.88066064     0.08300
C630        C  0.42355225  0.57226837  0.88561238     0.19200
C631        C  0.42135895  0.60203191  0.96380037    -0.55600
C632        C  0.43824953  0.56690272  0.94012492     0.08400
C633        C  0.42652944  0.65609474  0.89275006    -0.55100
C634        C  0.44182425  0.62093635  0.86843508     0.09000
H635        H  0.32182905  0.62373705  0.90989884     0.13500
H636        H  0.43477078  0.54289634  0.86563431    -0.00800
H637        H  0.42699673  0.60344242  0.00238453     0.13800
H638        H  0.43548221  0.69201972  0.88453729     0.13600
O639        O  0.31327683  0.54009113  0.83369599    -0.75600
O640        O  0.19172624  0.98832968  0.84690071    -0.75600
O641        O  0.23090412  0.57350227  0.83951020    -0.75600
O642        O  0.27371888  0.95437962  0.82800844    -0.75700
O643        O  0.29053940  0.94234654  0.90644731    -0.75600
O644        O  0.23679229  0.56635377  0.91929892    -0.75600
O645        O  0.20832720  0.98011950  0.92560076    -0.75600
O646        O  0.32242508  0.52834194  0.91321418    -0.75600
Ni647      Ni  0.25201730  0.51404813  0.83416547     1.25400
Ni648      Ni  0.26528253  0.50385141  0.91904267     1.25400
C649        C  0.33615026  0.54498951  0.87382762     0.86600
C650        C  0.18062573  0.97637841  0.89033121     0.86600
C651        C  0.22227188  0.58841719  0.87926208     0.86600
C652        C  0.29144808  0.92944716  0.86292765     0.86800
O653        O  0.31213608  0.95697655  0.66894165    -0.75600
O654        O  0.19141984  0.51242785  0.66584517    -0.75600
O655        O  0.22863425  0.92551792  0.67022710    -0.75600
O656        O  0.27588617  0.54219553  0.67551993    -0.75700
O657        O  0.27647202  0.55315589  0.59580575    -0.75600
O658        O  0.22170154  0.93117125  0.59017895    -0.75600
O659        O  0.19348819  0.51669300  0.58607193    -0.75600
O660        O  0.30569892  0.96857593  0.58915284    -0.75600
Ni661      Ni  0.25209410  0.98394923  0.67324026     1.25400
Ni662      Ni  0.24950154  0.99252813  0.58745599     1.25400
C663        C  0.32730651  0.95347829  0.62698503     0.86600
C664        C  0.17398649  0.52460938  0.62328740     0.86600
C665        C  0.21375171  0.91047776  0.63125469     0.86600
C666        C  0.28565419  0.56645704  0.63841119     0.86800
C667        C  0.31155473  0.60841747  0.64964001     0.85400
C668        C  0.28483842  0.64305031  0.67661576    -0.54900
C669        C  0.30894504  0.67979804  0.69262484     0.08300
C670        C  0.35866544  0.67853176  0.67628045     0.19200
C671        C  0.33042464  0.63636252  0.60808516    -0.55600
C672        C  0.35606805  0.67288579  0.62147068     0.08400
C673        C  0.35297122  0.59424119  0.68264582    -0.55100
C674        C  0.37827687  0.63039540  0.69542587     0.09000
H675        H  0.24958489  0.63777475  0.68376134     0.13500
H676        H  0.37894933  0.70875594  0.68643915    -0.00800
H677        H  0.32319418  0.62891855  0.57089386     0.13800
H678        H  0.36387375  0.55847414  0.69065701     0.13600
O679        O  0.33982697  0.81069022  0.52926851    -0.75600
O680        O  0.34186670  0.69391961  0.96727393    -0.75600
O681        O  0.33281888  0.72104802  0.55833498    -0.75600
O682        O  0.33442986  0.78358584  0.94043798    -0.75700
O683        O  0.40962052  0.78645021  0.94510671    -0.75600
O684        O  0.40768357  0.71579565  0.56957126    -0.75600
O685        O  0.41671308  0.69752836  0.97821850    -0.75600
O686        O  0.41486452  0.80495877  0.53668861    -0.75600
Ni687      Ni  0.33429347  0.75206069  0.49898035     1.25400
Ni688      Ni  0.41501925  0.75112488  0.50776289     1.25400
C689        C  0.37921542  0.82675343  0.54149849     0.86600
C690        C  0.38216327  0.67877964  0.96080542     0.86600
C691        C  0.36744371  0.70670344  0.58302176     0.86600
C692        C  0.37059312  0.79665235  0.92334627     0.86800
C693        C  0.38726463  0.86981340  0.80852416     0.85400
C694        C  0.39963851  0.84178835  0.85584980    -0.54900
C695        C  0.36437186  0.82448786  0.87826056     0.08300
C696        C  0.31770714  0.83855308  0.85297427     0.19200
C697        C  0.35627064  0.83822063  0.77904284    -0.55600
C698        C  0.31999730  0.81964548  0.80160909     0.08400
C699        C  0.35758285  0.90831569  0.82239208    -0.55100
C700        C  0.32158134  0.89294363  0.84756038     0.09000
H701        H  0.43411841  0.83572218  0.87040562     0.13500
H702        H  0.28807717  0.82593164  0.87237546    -0.00800
H703        H  0.36470851  0.82896549  0.74366924     0.13800
H704        H  0.36507564  0.94470781  0.81468680     0.13600
C705        C  0.36792228  0.92829427  0.61526224     0.85400
C706        C  0.39529112  0.90060731  0.65414541    -0.54900
C707        C  0.43126214  0.87762814  0.63768938     0.08300
C708        C  0.43470376  0.88493864  0.58221548     0.19200
C709        C  0.40136878  0.96011127  0.58851089    -0.55600
C710        C  0.43603104  0.93808969  0.56881766     0.08400
C711        C  0.35277840  0.89257774  0.58050590    -0.55100
C712        C  0.38689746  0.86966716  0.56373460     0.09000
H713        H  0.39004038  0.90360220  0.69188741     0.13500
H714        H  0.46316126  0.86547922  0.56895627    -0.00800
H715        H  0.39617282  0.99734665  0.58319704     0.13800
H716        H  0.31766639  0.88348934  0.57300565     0.13600
O717        O  0.47856285  0.83511458  0.69905252    -0.75600
O718        O  0.03645380  0.85123605  0.82585821    -0.75600
O719        O  0.45254404  0.84210461  0.78494390    -0.75600
O720        O  0.06374835  0.83388513  0.73996034    -0.75700
O721        O  0.06700839  0.91005165  0.72130396    -0.75600
O722        O  0.44667588  0.91865593  0.77034780    -0.75600
O723        O  0.03180706  0.92724512  0.80638059    -0.75600
O724        O  0.48369154  0.91165586  0.68410493    -0.75600
Ni725      Ni  0.00810753  0.83786132  0.76315372     1.25400
Ni726      Ni  0.00742638  0.91987599  0.74515297     1.25400
C727        C  0.46919774  0.87283285  0.67275021     0.86600
C728        C  0.04420354  0.89363416  0.83544608     0.86600
C729        C  0.43049815  0.87923509  0.78560975     0.86600
C730        C  0.08285250  0.86841732  0.72060451     0.86800
C731        C  0.12359643  0.64841650  0.81650534     0.85400
C732        C  0.10895884  0.68054431  0.85341930    -0.54900
C733        C  0.14322508  0.69587487  0.88129003     0.08300
C734        C  0.19102872  0.67785449  0.86933168     0.19200
C735        C  0.15924596  0.67597314  0.78789385    -0.55600
C736        C  0.19465874  0.69283741  0.81501329     0.08400
C737        C  0.14894112  0.60987235  0.84621662    -0.55100
C738        C  0.18563800  0.62387252  0.87367282     0.09000
H739        H  0.07384890  0.68857230  0.85877473     0.13500
H740        H  0.21950838  0.68988261  0.89258572    -0.00800
H741        H  0.15668126  0.68129841  0.74902473     0.13800
H742        H  0.14186496  0.57365417  0.84112790     0.13600
C743        C  0.13791563  0.95177018  0.90371254     0.85400
C744        C  0.11019663  0.93470516  0.86189841    -0.54900
C745        C  0.07473741  0.90767230  0.87460766     0.08300
C746        C  0.06941280  0.90159284  0.92930807     0.19200
C747        C  0.10370981  0.97766068  0.93322817    -0.55600
C748        C  0.06693372  0.95176065  0.94712936     0.08400
C749        C  0.15132503  0.90770958  0.93505023    -0.55100
C750        C  0.11634173  0.88134087  0.94815582     0.09000
H751        H  0.11794273  0.94310773  0.82479797     0.13500
H752        H  0.04017500  0.87971898  0.93864109    -0.00800
H753        H  0.10880115  0.01307027  0.94261028     0.13800
H754        H  0.18608643  0.89658605  0.94341449     0.13600
C755        C  0.12090586  0.85456387  0.69311813     0.85400
C756        C  0.10388760  0.82152008  0.65578777    -0.54900
C757        C  0.13696928  0.80558591  0.63029998     0.08300
C758        C  0.18482009  0.82355339  0.64493130     0.19200
C759        C  0.15827846  0.82752261  0.72460142    -0.55600
C760        C  0.19179447  0.80976958  0.69970990     0.08400
C761        C  0.14393909  0.89235102  0.66414839    -0.55100
C762        C  0.17820327  0.87677646  0.63863208     0.09000
H763        H  0.06850228  0.81377442  0.64823745     0.13500
H764        H  0.21235347  0.81180899  0.62342881    -0.00800
H765        H  0.15621335  0.82061602  0.76301569     0.13800
H766        H  0.13723568  0.92888584  0.66773482     0.13600
C767        C  0.13280951  0.55268987  0.61051956     0.85400
C768        C  0.10685631  0.57125629  0.64976914    -0.54900
C769        C  0.07113117  0.59917684  0.63300621     0.08300
C770        C  0.06450542  0.60428537  0.57742068     0.19200
C771        C  0.09815061  0.52748710  0.57876973    -0.55600
C772        C  0.06207261  0.55372378  0.56063757     0.08400
C773        C  0.14633723  0.59579873  0.58011187    -0.55100
C774        C  0.11145576  0.62286515  0.56290160     0.09000
H775        H  0.11531434  0.56256740  0.68763579     0.13500
H776        H  0.03503963  0.62629196  0.56426274    -0.00800
H777        H  0.10139203  0.49103833  0.57237184     0.13800
H778        H  0.18120542  0.60527997  0.57472886     0.13600
O779        O  0.16165793  0.81493724  0.98226946    -0.75600
O780        O  0.15866978  0.68621528  0.53414059    -0.75600
O781        O  0.16939723  0.73075403  0.94787553    -0.75600
O782        O  0.16456633  0.76926518  0.56928227    -0.75700
O783        O  0.08971976  0.77691322  0.56447926    -0.75600
O784        O  0.09446793  0.72650146  0.93894601    -0.75600
O785        O  0.08363696  0.69238437  0.52921238    -0.75600
O786        O  0.08674896  0.81139320  0.97303209    -0.75600
Ni787      Ni  0.16635279  0.75025093  0.50862365     1.25400
Ni788      Ni  0.08571708  0.75183307  0.50101987     1.25400
C789        C  0.12270080  0.83380032  0.96937009     0.86600
C790        C  0.11893122  0.66912433  0.54052058     0.86600
C791        C  0.13451605  0.71976153  0.92411573     0.86600
C792        C  0.12881014  0.78175953  0.58656048     0.86800
C793        C  0.46773515  0.96633267  0.53469064     0.85400
C794        C  0.00264071  0.94112352  0.50570123    -0.54900
C795        C  0.02897930  0.96996070  0.97708675     0.08300
C796        C  0.01639628  0.52260878  0.98080719     0.19200
C797        C  0.99637318  0.00088123  0.56251728    -0.55600
C798        C  0.02239942  0.53035181  0.53569924     0.08400
C799        C  0.44010054  0.99655860  0.49602193    -0.55100
C800        C  0.46393494  0.52673617  0.96785922     0.09000
H801        H  0.00670011  0.90379409  0.50844562     0.13500
H802        H  0.03650784  0.54698868  0.95844382    -0.00800
H803        H  0.99865643  0.49936602  0.60148750     0.13800
H804        H  0.40343908  0.99666303  0.99358866     0.13600
C805        C  0.28639059  0.71468509  0.72498553     0.85400
C806        C  0.25988213  0.68914586  0.76441248    -0.54900
C807        C  0.23489444  0.71600441  0.79127458     0.08300
C808        C  0.24181833  0.76943413  0.77765461     0.19200
C809        C  0.25108514  0.74664198  0.69635590    -0.55600
C810        C  0.22774937  0.77604151  0.72275363     0.08400
C811        C  0.31654715  0.74847590  0.75244873    -0.55100
C812        C  0.29433080  0.77852428  0.77993899     0.09000
H813        H  0.25725410  0.65164161  0.76758929     0.13500
H814        H  0.22329494  0.79228545  0.80008755    -0.00800
H815        H  0.24504476  0.74528825  0.65790808     0.13800
H816        H  0.35274205  0.74935271  0.74926641     0.13600
O817        O  0.94429615  0.08576922  0.22788749    -0.75600
O818        O  0.56777388  0.09363389  0.28310311    -0.75600
O819        O  0.98478497  0.08911286  0.31448626    -0.75600
O820        O  0.52785121  0.07842727  0.19502207    -0.75700
O821        O  0.53214575  0.15473662  0.17878299    -0.75600
O822        O  0.97580056  0.16548990  0.30150946    -0.75600
O823        O  0.56077289  0.17011899  0.26837361    -0.75600
O824        O  0.94740718  0.16189192  0.21007768    -0.75600
Ni825      Ni  0.50650178  0.08387632  0.25515923     1.25400
Ni826      Ni  0.00404435  0.16598074  0.23902933     1.22400
C827        C  0.92548868  0.12481123  0.21230250     0.86600
C828        C  0.58278993  0.13530442  0.28672919     0.86600
C829        C  0.96965377  0.12681324  0.32672430     0.86600
C830        C  0.54015452  0.11264672  0.16862337     0.86800
C831        C  0.89469762  0.13997037  0.43202643     0.85400
C832        C  0.85717420  0.11595264  0.40552135    -0.54900
C833        C  0.87117213  0.07999315  0.38066065     0.08300
C834        C  0.92355226  0.07226842  0.38561238     0.19200
C835        C  0.92135893  0.10203194  0.46380036    -0.55600
C836        C  0.93824951  0.06690276  0.44012491     0.08400
C837        C  0.92652946  0.15609484  0.39275005    -0.55100
C838        C  0.94182428  0.12093642  0.36843509     0.09000
H839        H  0.82182903  0.12373717  0.40989881     0.13500
H840        H  0.93477080  0.04289635  0.36563436    -0.00800
H841        H  0.92699669  0.10344243  0.50238450     0.13800
H842        H  0.93548220  0.19201969  0.38453733     0.13600
O843        O  0.81327675  0.04009131  0.33369592    -0.75600
O844        O  0.69172624  0.48832979  0.34690076    -0.75600
O845        O  0.73090410  0.07350222  0.33951023    -0.75600
O846        O  0.77371885  0.45437959  0.32800847    -0.75700
O847        O  0.79053946  0.44234663  0.40644734    -0.75600
O848        O  0.73679231  0.06635370  0.41929895    -0.75600
O849        O  0.70832720  0.48011960  0.42560081    -0.75600
O850        O  0.82242508  0.02834187  0.41321410    -0.75600
Ni851      Ni  0.75201732  0.01404812  0.33416549     1.25400
Ni852      Ni  0.76528255  0.00385132  0.41904268     1.25400
C853        C  0.83615019  0.04498961  0.37382756     0.86600
C854        C  0.68062575  0.47637843  0.39033124     0.86600
C855        C  0.72227193  0.08841716  0.37926212     0.86600
C856        C  0.79144808  0.42944717  0.36292769     0.86800
O857        O  0.81213594  0.45697652  0.16894151    -0.75600
O858        O  0.69141976  0.01242783  0.16584516    -0.75600
O859        O  0.72863419  0.42551790  0.17022708    -0.75600
O860        O  0.77588609  0.04219554  0.17551981    -0.75700
O861        O  0.77647199  0.05315590  0.09580567    -0.75600
O862        O  0.72170149  0.43117120  0.09017896    -0.75600
O863        O  0.69348812  0.01669300  0.08607194    -0.75600
O864        O  0.80569888  0.46857603  0.08915275    -0.75600
Ni865      Ni  0.75209401  0.48394922  0.17324014     1.25400
Ni866      Ni  0.74950146  0.49252814  0.08745595     1.25400
C867        C  0.82730645  0.45347835  0.12698494     0.86600
C868        C  0.67398645  0.02460940  0.12328742     0.86600
C869        C  0.71375170  0.41047770  0.13125470     0.86600
C870        C  0.78565420  0.06645702  0.13841111     0.86800
C871        C  0.81155476  0.10841742  0.14964000     0.85400
C872        C  0.78483846  0.14305023  0.17661579    -0.54900
C873        C  0.80894504  0.17979798  0.19262483     0.08300
C874        C  0.85866545  0.17853175  0.17628041     0.19200
C875        C  0.83042465  0.13636245  0.10808515    -0.55600
C876        C  0.85606801  0.17288575  0.12147064     0.08400
C877        C  0.85297125  0.09424116  0.18264585    -0.55100
C878        C  0.87827690  0.13039539  0.19542585     0.09000
H879        H  0.74958493  0.13777463  0.18376139     0.13500
H880        H  0.87894935  0.20875597  0.18643899    -0.00800
H881        H  0.82319424  0.12891845  0.07089386     0.13800
H882        H  0.86387378  0.05847414  0.19065707     0.13600
O883        O  0.83982700  0.31069020  0.02926853    -0.75600
O884        O  0.84186666  0.19391960  0.46727396    -0.75600
O885        O  0.83281881  0.22104802  0.05833491    -0.75600
O886        O  0.83442989  0.28358587  0.44043802    -0.75700
O887        O  0.90962055  0.28645016  0.44510672    -0.75600
O888        O  0.90768350  0.21579556  0.06957122    -0.75600
O889        O  0.91671305  0.19752827  0.47821852    -0.75600
O890        O  0.91486454  0.30495867  0.03668864    -0.75600
Ni891      Ni  0.83429348  0.25206071  0.99898031     1.25400
Ni892      Ni  0.91501926  0.25112481  0.00776288     1.25400
C893        C  0.87921546  0.32675336  0.04149855     0.86600
C894        C  0.88216323  0.17877961  0.46080543     0.86600
C895        C  0.86744363  0.20670338  0.08302169     0.86600
C896        C  0.87059314  0.29665236  0.42334631     0.86800
C897        C  0.88726463  0.36981332  0.30852421     0.85400
C898        C  0.89963849  0.34178828  0.35584984    -0.54900
C899        C  0.86437185  0.32448781  0.37826059     0.08300
C900        C  0.81770710  0.33855299  0.35297431     0.19200
C901        C  0.85627067  0.33822053  0.27904289    -0.55600
C902        C  0.81999734  0.31964538  0.30160910     0.08400
C903        C  0.85758284  0.40831560  0.32239214    -0.55100
C904        C  0.82158132  0.39294356  0.34756043     0.09000
H905        H  0.93411838  0.33572217  0.37040571     0.13500
H906        H  0.78807716  0.32593157  0.37237542    -0.00800
H907        H  0.86470857  0.32896540  0.24366929     0.13800
H908        H  0.86507565  0.44470770  0.31468687     0.13600
C909        C  0.86792225  0.42829429  0.11526221     0.85400
C910        C  0.89529114  0.40060745  0.15414544    -0.54900
C911        C  0.93126216  0.37762824  0.13768944     0.08300
C912        C  0.93470377  0.38493858  0.08221555     0.19200
C913        C  0.90136878  0.46011123  0.08851085    -0.55600
C914        C  0.93603104  0.43808961  0.06881765     0.08400
C915        C  0.85277843  0.39257768  0.08050595    -0.55100
C916        C  0.88689749  0.36966707  0.06373470     0.09000
H917        H  0.89004044  0.40360246  0.19188744     0.13500
H918        H  0.96316128  0.36547913  0.06895640    -0.00800
H919        H  0.89617287  0.49734661  0.08319701     0.13800
H920        H  0.81766637  0.38348926  0.07300561     0.13600
O921        O  0.97856286  0.33511469  0.19905254    -0.75600
O922        O  0.53645383  0.35123603  0.32585827    -0.75600
O923        O  0.95254404  0.34210455  0.28494394    -0.75600
O924        O  0.56374839  0.33388523  0.23996036    -0.75700
O925        O  0.56700842  0.41005176  0.22130398    -0.75600
O926        O  0.94667588  0.41865587  0.27034784    -0.75600
O927        O  0.53180707  0.42724509  0.30638060    -0.75600
O928        O  0.98369156  0.41165597  0.18410497    -0.75600
Ni929      Ni  0.50810756  0.33786131  0.26315376     1.25400
Ni930      Ni  0.50742640  0.41987599  0.24515301     1.25400
C931        C  0.96919776  0.37283297  0.17275023     0.86600
C932        C  0.54420355  0.39363415  0.33544611     0.86600
C933        C  0.93049816  0.37923504  0.28560980     0.86600
C934        C  0.58285255  0.36841742  0.22060454     0.86800
C935        C  0.62359644  0.14841644  0.31650538     0.85400
C936        C  0.60895891  0.18054425  0.35341931    -0.54900
C937        C  0.64322506  0.19587482  0.38129007     0.08300
C938        C  0.69102874  0.17785449  0.36933169     0.19200
C939        C  0.65924596  0.17597308  0.28789387    -0.55600
C940        C  0.69465874  0.19283742  0.31501328     0.08400
C941        C  0.64894115  0.10987227  0.34621667    -0.55100
C942        C  0.68563805  0.12387251  0.37367284     0.09000
H943        H  0.57384887  0.18857232  0.35877473     0.13500
H944        H  0.71950835  0.18988270  0.39258571    -0.00800
H945        H  0.65668120  0.18129836  0.24902475     0.13800
H946        H  0.64186504  0.07365417  0.34112796     0.13600
C947        C  0.63791566  0.45177012  0.40371252     0.85400
C948        C  0.61019665  0.43470512  0.36189841    -0.54900
C949        C  0.57473740  0.40767231  0.37460767     0.08300
C950        C  0.56941276  0.40159277  0.42930808     0.19200
C951        C  0.60370978  0.47766060  0.43322808    -0.55600
C952        C  0.56693373  0.45176060  0.44712937     0.08400
C953        C  0.65132497  0.40770951  0.43505023    -0.55100
C954        C  0.61634170  0.38134080  0.44815582     0.09000
H955        H  0.61794277  0.44310769  0.32479795     0.13500
H956        H  0.54017501  0.37971890  0.43864107    -0.00800
H957        H  0.60880111  0.51307033  0.44261007     0.13800
H958        H  0.68608646  0.39658590  0.44341451     0.13600
C959        C  0.62090591  0.35456391  0.19311816     0.85400
C960        C  0.60388761  0.32152016  0.15578779    -0.54900
C961        C  0.63696924  0.30558588  0.13030002     0.08300
C962        C  0.68482010  0.32355332  0.14493132     0.19200
C963        C  0.65827848  0.32752256  0.22460144    -0.55600
C964        C  0.69179447  0.30976952  0.19970991     0.08400
C965        C  0.64393915  0.39235101  0.16414842    -0.55100
C966        C  0.67820330  0.37677640  0.13863211     0.09000
H967        H  0.56850225  0.31377460  0.14823748     0.13500
H968        H  0.71235344  0.31180886  0.12342884    -0.00800
H969        H  0.65621334  0.32061595  0.26301570     0.13800
H970        H  0.63723573  0.42888586  0.16773480     0.13600
C971        C  0.63280954  0.05268990  0.11051959     0.85400
C972        C  0.60685634  0.07125629  0.14976917    -0.54900
C973        C  0.57113124  0.09917687  0.13300619     0.08300
C974        C  0.56450548  0.10428536  0.07742067     0.19200
C975        C  0.59815067  0.02748710  0.07876978    -0.55600
C976        C  0.56207267  0.05372377  0.06063762     0.08400
C977        C  0.64633729  0.09579880  0.08011193    -0.55100
C978        C  0.61145581  0.12286519  0.06290161     0.09000
H979        H  0.61531429  0.06256735  0.18763581     0.13500
H980        H  0.53503965  0.12629189  0.06426273    -0.00800
H981        H  0.60139211  0.99103830  0.07237193     0.13800
H982        H  0.68120548  0.10528010  0.07472900     0.13600
O983        O  0.66165794  0.31493725  0.48226946    -0.75600
O984        O  0.65866979  0.18621541  0.03414067    -0.75600
O985        O  0.66939716  0.23075403  0.44787555    -0.75600
O986        O  0.66456627  0.26926518  0.06928229    -0.75700
O987        O  0.58971968  0.27691315  0.06447920    -0.75600
O988        O  0.59446786  0.22650134  0.43894610    -0.75600
O989        O  0.58363696  0.19238435  0.02921229    -0.75600
O990        O  0.58674898  0.31139309  0.47303219    -0.75600
Ni991      Ni  0.66635278  0.25025098  0.00862365     1.25400
Ni992      Ni  0.58571708  0.25183300  0.00101977     1.25400
C993        C  0.62270078  0.33380025  0.46937011     0.86600
C994        C  0.61893124  0.16912440  0.04052061     0.86600
C995        C  0.63451599  0.21976145  0.42411579     0.86600
C996        C  0.62881006  0.28175945  0.08656050     0.86800
C997        C  0.96773516  0.46633257  0.03469063     0.85400
C998        C  0.50264076  0.44112338  0.00570124    -0.54900
C999        C  0.52897929  0.46996062  0.47708676     0.08300
C1000       C  0.51639621  0.02260889  0.48080719     0.19200
C1001       C  0.49637326  0.50088108  0.06251730    -0.55600
C1002       C  0.52239946  0.03035185  0.03569926     0.08400
C1003       C  0.94010060  0.49655855  0.99602193    -0.55100
C1004       C  0.96393487  0.02673623  0.46785923     0.09000
H1005       H  0.50670018  0.40379395  0.00844563     0.13500
H1006       H  0.53650770  0.04698888  0.45844376    -0.00800
H1007       H  0.49865636  0.99936619  0.10148751     0.13800
H1008       H  0.90343902  0.49666296  0.49358875     0.13600
C1009       C  0.78639059  0.21468505  0.22498550     0.85400
C1010       C  0.75988212  0.18914580  0.26441248    -0.54900
C1011       C  0.73489442  0.21600443  0.29127453     0.08300
C1012       C  0.74181837  0.26943413  0.27765457     0.19200
C1013       C  0.75108515  0.24664191  0.19635588    -0.55600
C1014       C  0.72774940  0.27604149  0.22275361     0.08400
C1015       C  0.81654722  0.24847586  0.25244863    -0.55100
C1016       C  0.79433084  0.27852423  0.27993894     0.09000
H1017       H  0.75725408  0.15164169  0.26758934     0.13500
H1018       H  0.72329503  0.29228550  0.30008748    -0.00800
H1019       H  0.74504479  0.24528815  0.15790808     0.13800
H1020       H  0.85274200  0.24935267  0.24926624     0.13600
O1021       O  0.94429619  0.08576919  0.72788746    -0.75600
O1022       O  0.56777388  0.09363389  0.78310310    -0.75600
O1023       O  0.98478498  0.08911286  0.81448627    -0.75600
O1024       O  0.52785125  0.07842725  0.69502214    -0.75700
O1025       O  0.53214566  0.15473660  0.67878308    -0.75600
O1026       O  0.97580067  0.16548990  0.80150950    -0.75600
O1027       O  0.56077281  0.17011899  0.76837360    -0.75600
O1028       O  0.94740724  0.16189192  0.71007785    -0.75600
Ni1029     Ni  0.50650177  0.08387631  0.75515923     1.25400
Ni1030     Ni  0.00404444  0.16598074  0.73902939     1.22400
C1031       C  0.92548875  0.12481122  0.71230253     0.86600
C1032       C  0.58278992  0.13530443  0.78672913     0.86600
C1033       C  0.96965375  0.12681325  0.82672427     0.86600
C1034       C  0.54015452  0.11264672  0.66862347     0.86800
C1035       C  0.89469758  0.13997037  0.93202646     0.85400
C1036       C  0.85717410  0.11595266  0.90552140    -0.54900
C1037       C  0.87117206  0.07999315  0.88066070     0.08300
C1038       C  0.92355215  0.07226843  0.88561236     0.19200
C1039       C  0.92135896  0.10203195  0.96380035    -0.55600
C1040       C  0.93824947  0.06690274  0.94012489     0.08400
C1041       C  0.92652943  0.15609484  0.89275006    -0.55100
C1042       C  0.94182418  0.12093642  0.86843503     0.09000
H1043       H  0.82182901  0.12373716  0.90989883     0.13500
H1044       H  0.93477061  0.04289635  0.86563427    -0.00800
H1045       H  0.92699689  0.10344249  0.00238450     0.13800
H1046       H  0.93548223  0.19201964  0.88453741     0.13600
O1047       O  0.81327673  0.04009122  0.83369598    -0.75600
O1048       O  0.69172611  0.48832983  0.84690073    -0.75600
O1049       O  0.73090403  0.07350219  0.83951019    -0.75600
O1050       O  0.77371871  0.45437957  0.82800847    -0.75700
O1051       O  0.79053952  0.44234669  0.90644730    -0.75600
O1052       O  0.73679237  0.06635373  0.91929891    -0.75600
O1053       O  0.70832718  0.48011956  0.92560076    -0.75600
O1054       O  0.82242500  0.02834191  0.91321416    -0.75600
Ni1055     Ni  0.75201723  0.01404810  0.83416546     1.25400
Ni1056     Ni  0.76528253  0.00385132  0.91904266     1.25400
C1057       C  0.83615015  0.04498958  0.87382763     0.86600
C1058       C  0.68062568  0.47637846  0.89033123     0.86600
C1059       C  0.72227199  0.08841721  0.87926208     0.86600
C1060       C  0.79144807  0.42944721  0.86292766     0.86800
O1061       O  0.81213604  0.45697650  0.66894164    -0.75600
O1062       O  0.69141988  0.01242787  0.66584516    -0.75600
O1063       O  0.72863416  0.42551790  0.67022710    -0.75600
O1064       O  0.77588623  0.04219552  0.67551994    -0.75700
O1065       O  0.77647193  0.05315592  0.59580574    -0.75600
O1066       O  0.72170147  0.43117122  0.59017895    -0.75600
O1067       O  0.69348820  0.01669303  0.58607191    -0.75600
O1068       O  0.80569886  0.46857601  0.58915284    -0.75600
Ni1069     Ni  0.75209411  0.48394920  0.67324027     1.25400
Ni1070     Ni  0.74950148  0.49252814  0.58745600     1.25400
C1071       C  0.82730645  0.45347833  0.62698501     0.86600
C1072       C  0.67398653  0.02460939  0.62328740     0.86600
C1073       C  0.71375165  0.41047772  0.63125469     0.86600
C1074       C  0.78565418  0.06645705  0.63841118     0.86800
C1075       C  0.81155478  0.10841746  0.64963999     0.85400
C1076       C  0.78483851  0.14305026  0.67661581    -0.54900
C1077       C  0.80894508  0.17979799  0.69262490     0.08300
C1078       C  0.85866551  0.17853177  0.67628051     0.19200
C1079       C  0.83042465  0.13636257  0.60808519    -0.55600
C1080       C  0.85606800  0.17288583  0.62147070     0.08400
C1081       C  0.85297131  0.09424116  0.68264580    -0.55100
C1082       C  0.87827696  0.13039538  0.69542585     0.09000
H1083       H  0.74958496  0.13777468  0.68376140     0.13500
H1084       H  0.87894941  0.20875592  0.68643917    -0.00800
H1085       H  0.82319422  0.12891863  0.57089381     0.13800
H1086       H  0.86387382  0.05847416  0.69065696     0.13600
O1087       O  0.83982697  0.31069020  0.52926850    -0.75600
O1088       O  0.84186658  0.19391961  0.96727394    -0.75600
O1089       O  0.83281881  0.22104804  0.55833494    -0.75600
O1090       O  0.83442987  0.28358586  0.94043800    -0.75700
O1091       O  0.90962057  0.28645017  0.94510670    -0.75600
O1092       O  0.90768346  0.21579557  0.56957124    -0.75600
O1093       O  0.91671299  0.19752828  0.97821851    -0.75600
O1094       O  0.91486450  0.30495866  0.53668863    -0.75600
Ni1095     Ni  0.83429351  0.25206070  0.49898033     1.25400
Ni1096     Ni  0.91501921  0.25112479  0.50776289     1.25400
C1097       C  0.87921541  0.32675337  0.54149851     0.86600
C1098       C  0.88216316  0.17877961  0.96080544     0.86600
C1099       C  0.86744361  0.20670345  0.58302176     0.86600
C1100       C  0.87059314  0.29665237  0.92334629     0.86800
C1101       C  0.88726460  0.36981333  0.80852415     0.85400
C1102       C  0.89963841  0.34178831  0.85584977    -0.54900
C1103       C  0.86437181  0.32448786  0.87826058     0.08300
C1104       C  0.81770709  0.33855305  0.85297427     0.19200
C1105       C  0.85627065  0.33822056  0.77904285    -0.55600
C1106       C  0.81999734  0.31964539  0.80160909     0.08400
C1107       C  0.85758279  0.40831563  0.82239204    -0.55100
C1108       C  0.82158128  0.39294360  0.84756036     0.09000
H1109       H  0.93411836  0.33572214  0.87040567     0.13500
H1110       H  0.78807708  0.32593164  0.87237545    -0.00800
H1111       H  0.86470853  0.32896539  0.74366922     0.13800
H1112       H  0.86507557  0.44470774  0.81468677     0.13600
C1113       C  0.86792218  0.42829427  0.61526219     0.85400
C1114       C  0.89529107  0.40060745  0.65414543    -0.54900
C1115       C  0.93126211  0.37762827  0.63768942     0.08300
C1116       C  0.93470368  0.38493860  0.58221552     0.19200
C1117       C  0.90136867  0.46011122  0.58851080    -0.55600
C1118       C  0.93603094  0.43808962  0.56881760     0.08400
C1119       C  0.85277829  0.39257766  0.58050590    -0.55100
C1120       C  0.88689741  0.36966707  0.56373467     0.09000
H1121       H  0.89004036  0.40360252  0.69188739     0.13500
H1122       H  0.96316121  0.36547917  0.56895637    -0.00800
H1123       H  0.89617272  0.49734660  0.58319697     0.13800
H1124       H  0.81766635  0.38348928  0.57300557     0.13600
O1125       O  0.97856282  0.33511470  0.69905253    -0.75600
O1126       O  0.53645369  0.35123603  0.82585827    -0.75600
O1127       O  0.95254412  0.34210456  0.78494398    -0.75600
O1128       O  0.56374829  0.33388524  0.73996032    -0.75700
O1129       O  0.56700848  0.41005175  0.72130395    -0.75600
O1130       O  0.94667578  0.41865586  0.77034775    -0.75600
O1131       O  0.53180724  0.42724509  0.80638051    -0.75600
O1132       O  0.98369160  0.41165595  0.68410487    -0.75600
Ni1133     Ni  0.50810746  0.33786131  0.76315372     1.25400
Ni1134     Ni  0.50742647  0.41987599  0.74515298     1.25400
C1135       C  0.96919774  0.37283296  0.67275019     0.86600
C1136       C  0.54420358  0.39363415  0.83544605     0.86600
C1137       C  0.93049815  0.37923502  0.78560978     0.86600
C1138       C  0.58285252  0.36841739  0.72060451     0.86800
C1139       C  0.62359645  0.14841644  0.81650531     0.85400
C1140       C  0.60895881  0.18054420  0.85341927    -0.54900
C1141       C  0.64322502  0.19587480  0.88129003     0.08300
C1142       C  0.69102870  0.17785453  0.86933169     0.19200
C1143       C  0.65924600  0.17597310  0.78789385    -0.55600
C1144       C  0.69465873  0.19283747  0.81501331     0.08400
C1145       C  0.64894121  0.10987229  0.84621662    -0.55100
C1146       C  0.68563809  0.12387254  0.87367282     0.09000
H1147       H  0.57384884  0.18857217  0.85877465     0.13500
H1148       H  0.71950827  0.18988279  0.89258573    -0.00800
H1149       H  0.65668134  0.18129836  0.74902471     0.13800
H1150       H  0.64186516  0.07365414  0.84112797     0.13600
C1151       C  0.63791564  0.45177014  0.90371257     0.85400
C1152       C  0.61019667  0.43470513  0.86189842    -0.54900
C1153       C  0.57473741  0.40767230  0.87460764     0.08300
C1154       C  0.56941276  0.40159276  0.92930804     0.19200
C1155       C  0.60370976  0.47766058  0.93322816    -0.55600
C1156       C  0.56693371  0.45176056  0.94712936     0.08400
C1157       C  0.65132497  0.40770952  0.93505024    -0.55100
C1158       C  0.61634168  0.38134079  0.94815579     0.09000
H1159       H  0.61794283  0.44310762  0.82479799     0.13500
H1160       H  0.54017497  0.37971887  0.93864102    -0.00800
H1161       H  0.60880104  0.51307024  0.94261032     0.13800
H1162       H  0.68608645  0.39658596  0.94341452     0.13600
C1163       C  0.62090588  0.35456388  0.69311814     0.85400
C1164       C  0.60388762  0.32152013  0.65578775    -0.54900
C1165       C  0.63696928  0.30558588  0.63030000     0.08300
C1166       C  0.68482012  0.32355333  0.64493128     0.19200
C1167       C  0.65827848  0.32752257  0.72460141    -0.55600
C1168       C  0.69179446  0.30976952  0.69970990     0.08400
C1169       C  0.64393909  0.39235100  0.66414836    -0.55100
C1170       C  0.67820326  0.37677642  0.63863208     0.09000
H1171       H  0.56850229  0.31377458  0.64823741     0.13500
H1172       H  0.71235346  0.31180893  0.62342887    -0.00800
H1173       H  0.65621340  0.32061595  0.76301570     0.13800
H1174       H  0.63723563  0.42888585  0.66773471     0.13600
C1175       C  0.63280955  0.05268986  0.61051957     0.85400
C1176       C  0.60685632  0.07125626  0.64976915    -0.54900
C1177       C  0.57113123  0.09917690  0.63300622     0.08300
C1178       C  0.56450552  0.10428539  0.57742067     0.19200
C1179       C  0.59815063  0.02748709  0.57876977    -0.55600
C1180       C  0.56207265  0.05372380  0.56063759     0.08400
C1181       C  0.64633731  0.09579876  0.58011191    -0.55100
C1182       C  0.61145585  0.12286517  0.56290158     0.09000
H1183       H  0.61531425  0.06256724  0.68763579     0.13500
H1184       H  0.53503967  0.12629201  0.56426269    -0.00800
H1185       H  0.60139201  0.99103829  0.57237192     0.13800
H1186       H  0.68120546  0.10528005  0.57472899     0.13600
O1187       O  0.66165789  0.31493724  0.98226944    -0.75600
O1188       O  0.65866988  0.18621540  0.53414065    -0.75600
O1189       O  0.66939721  0.23075401  0.94787552    -0.75600
O1190       O  0.66456629  0.26926520  0.56928227    -0.75700
O1191       O  0.58971974  0.27691313  0.56447927    -0.75600
O1192       O  0.59446788  0.22650136  0.93894603    -0.75600
O1193       O  0.58363708  0.19238435  0.52921235    -0.75600
O1194       O  0.58674890  0.31139310  0.97303208    -0.75600
Ni1195     Ni  0.66635277  0.25025099  0.50862365     1.25400
Ni1196     Ni  0.58571716  0.25183299  0.50101987     1.25400
C1197       C  0.62270074  0.33380025  0.96937007     0.86600
C1198       C  0.61893136  0.16912437  0.54052059     0.86600
C1199       C  0.63451601  0.21976145  0.92411575     0.86600
C1200       C  0.62881012  0.28175947  0.58656051     0.86800
C1201       C  0.96773513  0.46633257  0.53469063     0.85400
C1202       C  0.50264066  0.44112341  0.50570117    -0.54900
C1203       C  0.52897933  0.46996059  0.97708678     0.08300
C1204       C  0.51639629  0.02260888  0.98080723     0.19200
C1205       C  0.49637327  0.50088111  0.56251727    -0.55600
C1206       C  0.52239945  0.03035186  0.53569922     0.08400
C1207       C  0.94010063  0.49655853  0.49602191    -0.55100
C1208       C  0.96393489  0.02673624  0.96785921     0.09000
H1209       H  0.50670004  0.40379398  0.50844558     0.13500
H1210       H  0.53650780  0.04698886  0.95844383    -0.00800
H1211       H  0.49865647  0.99936622  0.60148750     0.13800
H1212       H  0.90343913  0.49666296  0.99358877     0.13600
C1213       C  0.78639058  0.21468504  0.72498554     0.85400
C1214       C  0.75988210  0.18914581  0.76441251    -0.54900
C1215       C  0.73489448  0.21600445  0.79127464     0.08300
C1216       C  0.74181842  0.26943414  0.77765461     0.19200
C1217       C  0.75108510  0.24664187  0.69635591    -0.55600
C1218       C  0.72774938  0.27604145  0.72275364     0.08400
C1219       C  0.81654725  0.24847580  0.75244870    -0.55100
C1220       C  0.79433088  0.27852422  0.77993896     0.09000
H1221       H  0.75725398  0.15164169  0.76758933     0.13500
H1222       H  0.72329516  0.29228558  0.80008753    -0.00800
H1223       H  0.74504466  0.24528809  0.65790811     0.13800
H1224       H  0.85274204  0.24935253  0.74926640     0.13600
O1225       O  0.94429614  0.58576930  0.22788751    -0.75600
O1226       O  0.56777389  0.59363393  0.28310311    -0.75600
O1227       O  0.98478499  0.58911273  0.31448627    -0.75600
O1228       O  0.52785121  0.57842728  0.19502207    -0.75700
O1229       O  0.53214577  0.65473661  0.17878299    -0.75600
O1230       O  0.97580058  0.66548976  0.30150949    -0.75600
O1231       O  0.56077289  0.67011903  0.26837361    -0.75600
O1232       O  0.94740715  0.66189200  0.21007771    -0.75600
Ni1233     Ni  0.50650179  0.58387633  0.25515922     1.25400
Ni1234     Ni  0.00404432  0.66598078  0.23902933     1.22400
C1235       C  0.92548868  0.62481130  0.21230250     0.86600
C1236       C  0.58278994  0.63530447  0.28672919     0.86600
C1237       C  0.96965379  0.62681310  0.32672431     0.86600
C1238       C  0.54015453  0.61264672  0.16862338     0.86800
C1239       C  0.89469763  0.63997037  0.43202643     0.85400
C1240       C  0.85717422  0.61595258  0.40552136    -0.54900
C1241       C  0.87117214  0.57999311  0.38066063     0.08300
C1242       C  0.92355225  0.57226837  0.38561239     0.19200
C1243       C  0.92135894  0.60203195  0.46380037    -0.55600
C1244       C  0.93824950  0.56690273  0.44012492     0.08400
C1245       C  0.92652946  0.65609474  0.39275005    -0.55100
C1246       C  0.94182429  0.62093635  0.36843510     0.09000
H1247       H  0.82182901  0.62373706  0.40989884     0.13500
H1248       H  0.93477080  0.54289631  0.36563435    -0.00800
H1249       H  0.92699670  0.60344248  0.50238449     0.13800
H1250       H  0.93548226  0.69201973  0.38453728     0.13600
O1251       O  0.81327681  0.54009116  0.33369592    -0.75600
O1252       O  0.69172628  0.98832967  0.34690075    -0.75600
O1253       O  0.73090415  0.57350227  0.33951023    -0.75600
O1254       O  0.77371891  0.95437963  0.32800847    -0.75700
O1255       O  0.79053943  0.94234654  0.40644734    -0.75600
O1256       O  0.73679232  0.56635377  0.41929895    -0.75600
O1257       O  0.70832722  0.98011948  0.42560080    -0.75600
O1258       O  0.82242507  0.52834193  0.41321411    -0.75600
Ni1259     Ni  0.75201732  0.51404813  0.33416549     1.25400
Ni1260     Ni  0.76528255  0.50385141  0.41904268     1.25400
C1261       C  0.83615023  0.54498954  0.37382756     0.86600
C1262       C  0.68062575  0.97637839  0.39033124     0.86600
C1263       C  0.72227192  0.58841719  0.37926212     0.86600
C1264       C  0.79144811  0.92944717  0.36292768     0.86800
O1265       O  0.81213596  0.95697657  0.16894152    -0.75600
O1266       O  0.69141978  0.51242786  0.16584517    -0.75600
O1267       O  0.72863421  0.92551794  0.17022709    -0.75600
O1268       O  0.77588611  0.54219553  0.17551981    -0.75700
O1269       O  0.77647198  0.55315591  0.09580567    -0.75600
O1270       O  0.72170148  0.93117124  0.09017896    -0.75600
O1271       O  0.69348813  0.51669300  0.08607194    -0.75600
O1272       O  0.80569883  0.96857591  0.08915275    -0.75600
Ni1273     Ni  0.75209402  0.98394925  0.17324014     1.25400
Ni1274     Ni  0.74950146  0.99252813  0.08745594     1.25400
C1275       C  0.82730643  0.95347830  0.12698495     0.86600
C1276       C  0.67398646  0.52460941  0.12328742     0.86600
C1277       C  0.71375171  0.91047773  0.13125471     0.86600
C1278       C  0.78565419  0.56645703  0.13841111     0.86800
C1279       C  0.81155475  0.60841744  0.14964000     0.85400
C1280       C  0.78483846  0.64305029  0.17661577    -0.54900
C1281       C  0.80894507  0.67979805  0.19262480     0.08300
C1282       C  0.85866547  0.67853178  0.17628039     0.19200
C1283       C  0.83042465  0.63636248  0.10808515    -0.55600
C1284       C  0.85606804  0.67288576  0.12147063     0.08400
C1285       C  0.85297124  0.59424119  0.18264584    -0.55100
C1286       C  0.87827689  0.63039542  0.19542585     0.09000
H1287       H  0.74958493  0.63777473  0.18376138     0.13500
H1288       H  0.87894939  0.70875597  0.18643897    -0.00800
H1289       H  0.82319418  0.62891849  0.07089385     0.13800
H1290       H  0.86387377  0.55847414  0.19065707     0.13600
O1291       O  0.83982700  0.81069022  0.02926852    -0.75600
O1292       O  0.84186667  0.69391960  0.46727395    -0.75600
O1293       O  0.83281881  0.72104802  0.05833493    -0.75600
O1294       O  0.83442989  0.78358583  0.44043801    -0.75700
O1295       O  0.90962055  0.78645021  0.44510671    -0.75600
O1296       O  0.90768351  0.71579565  0.06957123    -0.75600
O1297       O  0.91671306  0.69752835  0.47821850    -0.75600
O1298       O  0.91486455  0.80495876  0.03668864    -0.75600
Ni1299     Ni  0.83429348  0.75206070  0.99898032     1.25400
Ni1300     Ni  0.91501926  0.75112489  0.00776289     1.25400
C1301       C  0.87921546  0.82675343  0.04149852     0.86600
C1302       C  0.88216325  0.67877964  0.46080541     0.86600
C1303       C  0.86744365  0.70670342  0.08302170     0.86600
C1304       C  0.87059314  0.79665235  0.42334629     0.86800
C1305       C  0.88726464  0.86981339  0.30852421     0.85400
C1306       C  0.89963849  0.84178834  0.35584984    -0.54900
C1307       C  0.86437185  0.82448787  0.37826059     0.08300
C1308       C  0.81770710  0.83855307  0.35297431     0.19200
C1309       C  0.85627065  0.83822062  0.27904289    -0.55600
C1310       C  0.81999732  0.81964547  0.30160910     0.08400
C1311       C  0.85758287  0.90831568  0.32239213    -0.55100
C1312       C  0.82158134  0.89294362  0.34756040     0.09000
H1313       H  0.93411840  0.83572216  0.37040566     0.13500
H1314       H  0.78807717  0.82593168  0.37237542    -0.00800
H1315       H  0.86470856  0.82896549  0.24366930     0.13800
H1316       H  0.86507567  0.94470780  0.31468686     0.13600
C1317       C  0.86792227  0.92829428  0.11526225     0.85400
C1318       C  0.89529113  0.90060732  0.15414544    -0.54900
C1319       C  0.93126217  0.87762814  0.13768941     0.08300
C1320       C  0.93470379  0.88493865  0.08221552     0.19200
C1321       C  0.90136879  0.96011127  0.08851092    -0.55600
C1322       C  0.93603106  0.93808970  0.06881769     0.08400
C1323       C  0.85277847  0.89257774  0.08050594    -0.55100
C1324       C  0.88689749  0.86966716  0.06373464     0.09000
H1325       H  0.89004040  0.90360221  0.19188744     0.13500
H1326       H  0.96316129  0.86547922  0.06895631    -0.00800
H1327       H  0.89617283  0.99734665  0.08319707     0.13800
H1328       H  0.81766638  0.88348929  0.07300566     0.13600
O1329       O  0.97856287  0.83511458  0.19905255    -0.75600
O1330       O  0.53645383  0.85123605  0.32585823    -0.75600
O1331       O  0.95254405  0.84210460  0.28494394    -0.75600
O1332       O  0.56374829  0.83388512  0.23996032    -0.75700
O1333       O  0.56700841  0.91005165  0.22130401    -0.75600
O1334       O  0.94667589  0.91865593  0.27034783    -0.75600
O1335       O  0.53180709  0.92724512  0.30638062    -0.75600
O1336       O  0.98369156  0.91165586  0.18410496    -0.75600
Ni1337     Ni  0.50810752  0.83786132  0.26315375     1.25400
Ni1338     Ni  0.50742641  0.91987600  0.24515301     1.25400
C1339       C  0.96919777  0.87283285  0.17275023     0.86600
C1340       C  0.54420356  0.89363416  0.33544611     0.86600
C1341       C  0.93049817  0.87923509  0.28560980     0.86600
C1342       C  0.58285249  0.86841731  0.22060454     0.86800
C1343       C  0.62359644  0.64841650  0.31650538     0.85400
C1344       C  0.60895890  0.68054431  0.35341932    -0.54900
C1345       C  0.64322507  0.69587487  0.38129006     0.08300
C1346       C  0.69102874  0.67785450  0.36933169     0.19200
C1347       C  0.65924596  0.67597313  0.28789387    -0.55600
C1348       C  0.69465876  0.69283741  0.31501329     0.08400
C1349       C  0.64894114  0.60987236  0.34621665    -0.55100
C1350       C  0.68563803  0.62387252  0.37367284     0.09000
H1351       H  0.57384889  0.68857238  0.35877477     0.13500
H1352       H  0.71950840  0.68988263  0.39258575    -0.00800
H1353       H  0.65668125  0.68129839  0.24902475     0.13800
H1354       H  0.64186498  0.57365417  0.34112793     0.13600
C1355       C  0.63791563  0.95177018  0.40371252     0.85400
C1356       C  0.61019666  0.93470513  0.36189840    -0.54900
C1357       C  0.57473744  0.90767228  0.37460767     0.08300
C1358       C  0.56941279  0.90159284  0.42930809     0.19200
C1359       C  0.60370978  0.97766072  0.43322806    -0.55600
C1360       C  0.56693372  0.95176069  0.44712934     0.08400
C1361       C  0.65132496  0.90770960  0.43505025    -0.55100
C1362       C  0.61634171  0.88134088  0.44815586     0.09000
H1363       H  0.61794276  0.94310770  0.32479797     0.13500
H1364       H  0.54017499  0.87971898  0.43864113    -0.00800
H1365       H  0.60880111  0.01307038  0.44261006     0.13800
H1366       H  0.68608645  0.89658598  0.44341451     0.13600
C1367       C  0.62090587  0.85456386  0.19311818     0.85400
C1368       C  0.60388762  0.82152007  0.15578782    -0.54900
C1369       C  0.63696927  0.80558590  0.13030001     0.08300
C1370       C  0.68482012  0.82355337  0.14493131     0.19200
C1371       C  0.65827849  0.82752260  0.22460146    -0.55600
C1372       C  0.69179450  0.80976959  0.19970992     0.08400
C1373       C  0.64393912  0.89235101  0.16414844    -0.55100
C1374       C  0.67820329  0.87677644  0.13863211     0.09000
H1375       H  0.56850229  0.81377443  0.14823750     0.13500
H1376       H  0.71235348  0.81180899  0.12342885    -0.00800
H1377       H  0.65621338  0.82061602  0.26301574     0.13800
H1378       H  0.63723570  0.92888583  0.16773486     0.13600
C1379       C  0.63280953  0.55268988  0.11051959     0.85400
C1380       C  0.60685634  0.57125630  0.14976917    -0.54900
C1381       C  0.57113123  0.59917684  0.13300619     0.08300
C1382       C  0.56450546  0.60428535  0.07742068     0.19200
C1383       C  0.59815065  0.52748709  0.07876977    -0.55600
C1384       C  0.56207265  0.55372375  0.06063760     0.08400
C1385       C  0.64633727  0.59579874  0.08011190    -0.55100
C1386       C  0.61145579  0.62286515  0.06290163     0.09000
H1387       H  0.61531437  0.56256742  0.18763582     0.13500
H1388       H  0.53503966  0.62629194  0.06426276    -0.00800
H1389       H  0.60139210  0.49103832  0.07237189     0.13800
H1390       H  0.68120545  0.60527997  0.07472890     0.13600
O1391       O  0.66165795  0.81493725  0.48226947    -0.75600
O1392       O  0.65866981  0.68621529  0.03414062    -0.75600
O1393       O  0.66939718  0.73075404  0.44787554    -0.75600
O1394       O  0.66456627  0.76926517  0.06928229    -0.75700
O1395       O  0.58971970  0.77691325  0.06447919    -0.75600
O1396       O  0.59446787  0.72650144  0.43894609    -0.75600
O1397       O  0.58363699  0.69238438  0.02921231    -0.75600
O1398       O  0.58674898  0.81139318  0.47303220    -0.75600
Ni1399     Ni  0.66635279  0.75025093  0.00862365     1.25400
Ni1400     Ni  0.58571709  0.75183308  0.00101978     1.25400
C1401       C  0.62270080  0.83380031  0.46937013     0.86600
C1402       C  0.61893125  0.66912434  0.04052059     0.86600
C1403       C  0.63451600  0.71976153  0.42411577     0.86600
C1404       C  0.62881008  0.78175953  0.08656047     0.86800
C1405       C  0.96773517  0.96633269  0.03469065     0.85400
C1406       C  0.50264073  0.94112351  0.00570124    -0.54900
C1407       C  0.52897929  0.96996072  0.47708674     0.08300
C1408       C  0.51639621  0.52260881  0.48080719     0.19200
C1409       C  0.49637319  0.00088124  0.06251728    -0.55600
C1410       C  0.52239950  0.53035173  0.03569926     0.08400
C1411       C  0.94010060  0.99655862  0.99602191    -0.55100
C1412       C  0.96393486  0.52673618  0.46785924     0.09000
H1413       H  0.50670012  0.90379410  0.00844559     0.13500
H1414       H  0.53650772  0.54698877  0.45844373    -0.00800
H1415       H  0.49865640  0.49936604  0.10148753     0.13800
H1416       H  0.90343901  0.99666300  0.49358871     0.13600
C1417       C  0.78639062  0.71468511  0.22498548     0.85400
C1418       C  0.75988216  0.68914586  0.26441244    -0.54900
C1419       C  0.73489445  0.71600440  0.29127452     0.08300
C1420       C  0.74181837  0.76943412  0.27765460     0.19200
C1421       C  0.75108516  0.74664198  0.19635588    -0.55600
C1422       C  0.72774941  0.77604152  0.22275363     0.08400
C1423       C  0.81654723  0.74847594  0.25244862    -0.55100
C1424       C  0.79433083  0.77852428  0.27993896     0.09000
H1425       H  0.75725414  0.65164161  0.26758928     0.13500
H1426       H  0.72329498  0.79228541  0.30008756    -0.00800
H1427       H  0.74504476  0.74528826  0.15790807     0.13800
H1428       H  0.85274201  0.74935280  0.24926621     0.13600
O1429       O  0.94429621  0.58576927  0.72788747    -0.75600
O1430       O  0.56777388  0.59363393  0.78310310    -0.75600
O1431       O  0.98478499  0.58911275  0.81448629    -0.75600
O1432       O  0.52785124  0.57842726  0.69502214    -0.75700
O1433       O  0.53214567  0.65473660  0.67878307    -0.75600
O1434       O  0.97580052  0.66548976  0.80150945    -0.75600
O1435       O  0.56077282  0.67011903  0.76837360    -0.75600
O1436       O  0.94740723  0.66189200  0.71007783    -0.75600
Ni1437     Ni  0.50650177  0.58387633  0.75515922     1.25400
Ni1438     Ni  0.00404441  0.66598078  0.73902939     1.22400
C1439       C  0.92548875  0.62481129  0.71230253     0.86600
C1440       C  0.58278992  0.63530447  0.78672913     0.86600
C1441       C  0.96965370  0.62681310  0.82672427     0.86600
C1442       C  0.54015453  0.61264672  0.66862347     0.86800
C1443       C  0.89469759  0.63997036  0.93202646     0.85400
C1444       C  0.85717411  0.61595260  0.90552141    -0.54900
C1445       C  0.87117207  0.57999311  0.88066067     0.08300
C1446       C  0.92355215  0.57226837  0.88561237     0.19200
C1447       C  0.92135897  0.60203195  0.96380036    -0.55600
C1448       C  0.93824947  0.56690272  0.94012491     0.08400
C1449       C  0.92652943  0.65609474  0.89275007    -0.55100
C1450       C  0.94182418  0.62093634  0.86843505     0.09000
H1451       H  0.82182898  0.62373706  0.90989886     0.13500
H1452       H  0.93477061  0.54289631  0.86563426    -0.00800
H1453       H  0.92699690  0.60344254  0.00238450     0.13800
H1454       H  0.93548228  0.69201967  0.88453735     0.13600
O1455       O  0.81327680  0.54009108  0.83369598    -0.75600
O1456       O  0.69172615  0.98832971  0.84690073    -0.75600
O1457       O  0.73090408  0.57350224  0.83951019    -0.75600
O1458       O  0.77371878  0.95437960  0.82800847    -0.75700
O1459       O  0.79053949  0.94234659  0.90644731    -0.75600
O1460       O  0.73679237  0.56635379  0.91929892    -0.75600
O1461       O  0.70832720  0.98011945  0.92560075    -0.75600
O1462       O  0.82242499  0.52834197  0.91321418    -0.75600
Ni1463     Ni  0.75201723  0.51404811  0.83416546     1.25400
Ni1464     Ni  0.76528252  0.50385141  0.91904266     1.25400
C1465       C  0.83615019  0.54498951  0.87382763     0.86600
C1466       C  0.68062569  0.97637841  0.89033123     0.86600
C1467       C  0.72227197  0.58841723  0.87926208     0.86600
C1468       C  0.79144808  0.92944718  0.86292765     0.86800
O1469       O  0.81213606  0.95697656  0.66894165    -0.75600
O1470       O  0.69141990  0.51242789  0.66584517    -0.75600
O1471       O  0.72863418  0.92551794  0.67022710    -0.75600
O1472       O  0.77588624  0.54219550  0.67551994    -0.75700
O1473       O  0.77647191  0.55315592  0.59580575    -0.75600
O1474       O  0.72170146  0.93117126  0.59017895    -0.75600
O1475       O  0.69348821  0.51669303  0.58607192    -0.75600
O1476       O  0.80569881  0.96857589  0.58915284    -0.75600
Ni1477     Ni  0.75209411  0.98394923  0.67324027     1.25400
Ni1478     Ni  0.74950148  0.99252813  0.58745599     1.25400
C1479       C  0.82730643  0.95347828  0.62698502     0.86600
C1480       C  0.67398653  0.52460940  0.62328740     0.86600
C1481       C  0.71375166  0.91047776  0.63125470     0.86600
C1482       C  0.78565418  0.56645704  0.63841119     0.86800
C1483       C  0.81155478  0.60841746  0.64964001     0.85400
C1484       C  0.78483851  0.64305032  0.67661578    -0.54900
C1485       C  0.80894510  0.67979804  0.69262486     0.08300
C1486       C  0.85866552  0.67853178  0.67628047     0.19200
C1487       C  0.83042468  0.63636251  0.60808517    -0.55600
C1488       C  0.85606804  0.67288579  0.62147068     0.08400
C1489       C  0.85297131  0.59424117  0.68264582    -0.55100
C1490       C  0.87827696  0.63039540  0.69542586     0.09000
H1491       H  0.74958496  0.63777478  0.68376137     0.13500
H1492       H  0.87894944  0.70875590  0.68643911    -0.00800
H1493       H  0.82319423  0.62891851  0.57089384     0.13800
H1494       H  0.86387382  0.55847415  0.69065698     0.13600
O1495       O  0.83982698  0.81069022  0.52926850    -0.75600
O1496       O  0.84186659  0.69391960  0.96727393    -0.75600
O1497       O  0.83281880  0.72104803  0.55833497    -0.75600
O1498       O  0.83442988  0.78358583  0.94043799    -0.75700
O1499       O  0.90962058  0.78645022  0.94510669    -0.75600
O1500       O  0.90768346  0.71579565  0.56957125    -0.75600
O1501       O  0.91671300  0.69752836  0.97821850    -0.75600
O1502       O  0.91486450  0.80495876  0.53668863    -0.75600
Ni1503     Ni  0.83429352  0.75206070  0.49898034     1.25400
Ni1504     Ni  0.91501922  0.75112488  0.50776290     1.25400
C1505       C  0.87921540  0.82675343  0.54149849     0.86600
C1506       C  0.88216318  0.67877964  0.96080542     0.86600
C1507       C  0.86744362  0.70670346  0.58302176     0.86600
C1508       C  0.87059314  0.79665235  0.92334627     0.86800
C1509       C  0.88726460  0.86981339  0.80852415     0.85400
C1510       C  0.89963841  0.84178836  0.85584977    -0.54900
C1511       C  0.86437182  0.82448788  0.87826057     0.08300
C1512       C  0.81770709  0.83855307  0.85297426     0.19200
C1513       C  0.85627064  0.83822063  0.77904284    -0.55600
C1514       C  0.81999734  0.81964544  0.80160908     0.08400
C1515       C  0.85758279  0.90831568  0.82239205    -0.55100
C1516       C  0.82158128  0.89294362  0.84756034     0.09000
H1517       H  0.93411838  0.83572216  0.87040564     0.13500
H1518       H  0.78807712  0.82593160  0.87237542    -0.00800
H1519       H  0.86470851  0.82896550  0.74366920     0.13800
H1520       H  0.86507556  0.94470781  0.81468679     0.13600
C1521       C  0.86792219  0.92829426  0.61526221     0.85400
C1522       C  0.89529102  0.90060733  0.65414542    -0.54900
C1523       C  0.93126206  0.87762816  0.63768940     0.08300
C1524       C  0.93470368  0.88493866  0.58221550     0.19200
C1525       C  0.90136867  0.96011127  0.58851086    -0.55600
C1526       C  0.93603096  0.93808970  0.56881765     0.08400
C1527       C  0.85277832  0.89257772  0.58050588    -0.55100
C1528       C  0.88689742  0.86966716  0.56373460     0.09000
H1529       H  0.89004026  0.90360227  0.69188739     0.13500
H1530       H  0.96316122  0.86547925  0.56895630    -0.00800
H1531       H  0.89617269  0.99734665  0.58319702     0.13800
H1532       H  0.81766635  0.88348931  0.57300561     0.13600
O1533       O  0.97856279  0.83511459  0.69905256    -0.75600
O1534       O  0.53645369  0.85123606  0.82585825    -0.75600
O1535       O  0.95254413  0.84210462  0.78494398    -0.75600
O1536       O  0.56374829  0.83388513  0.73996033    -0.75700
O1537       O  0.56700848  0.91005164  0.72130396    -0.75600
O1538       O  0.94667578  0.91865591  0.77034775    -0.75600
O1539       O  0.53180726  0.92724513  0.80638052    -0.75600
O1540       O  0.98369155  0.91165584  0.68410487    -0.75600
Ni1541     Ni  0.50810747  0.83786132  0.76315372     1.25400
Ni1542     Ni  0.50742648  0.91987600  0.74515298     1.25400
C1543       C  0.96919767  0.87283284  0.67275022     0.86600
C1544       C  0.54420360  0.89363416  0.83544605     0.86600
C1545       C  0.93049815  0.87923508  0.78560978     0.86600
C1546       C  0.58285251  0.86841729  0.72060451     0.86800
C1547       C  0.62359644  0.64841649  0.81650531     0.85400
C1548       C  0.60895881  0.68054427  0.85341927    -0.54900
C1549       C  0.64322503  0.69587485  0.88129003     0.08300
C1550       C  0.69102870  0.67785453  0.86933169     0.19200
C1551       C  0.65924600  0.67597315  0.78789384    -0.55600
C1552       C  0.69465875  0.69283746  0.81501331     0.08400
C1553       C  0.64894120  0.60987237  0.84621661    -0.55100
C1554       C  0.68563806  0.62387256  0.87367283     0.09000
H1555       H  0.57384886  0.68857223  0.85877469     0.13500
H1556       H  0.71950832  0.68988272  0.89258577    -0.00800
H1557       H  0.65668139  0.68129839  0.74902471     0.13800
H1558       H  0.64186510  0.57365414  0.84112794     0.13600
C1559       C  0.63791561  0.95177020  0.90371256     0.85400
C1560       C  0.61019668  0.93470514  0.86189842    -0.54900
C1561       C  0.57473745  0.90767227  0.87460765     0.08300
C1562       C  0.56941278  0.90159284  0.92930805     0.19200
C1563       C  0.60370975  0.97766070  0.93322815    -0.55600
C1564       C  0.56693369  0.95176065  0.94712934     0.08400
C1565       C  0.65132496  0.90770961  0.93505025    -0.55100
C1566       C  0.61634169  0.88134087  0.94815583     0.09000
H1567       H  0.61794282  0.94310763  0.82479800     0.13500
H1568       H  0.54017496  0.87971895  0.93864107    -0.00800
H1569       H  0.60880104  0.01307029  0.94261031     0.13800
H1570       H  0.68608643  0.89658604  0.94341453     0.13600
C1571       C  0.62090587  0.85456384  0.69311814     0.85400
C1572       C  0.60388764  0.82152005  0.65578778    -0.54900
C1573       C  0.63696931  0.80558591  0.63029998     0.08300
C1574       C  0.68482013  0.82355338  0.64493129     0.19200
C1575       C  0.65827850  0.82752262  0.72460142    -0.55600
C1576       C  0.69179449  0.80976959  0.69970991     0.08400
C1577       C  0.64393906  0.89235100  0.66414837    -0.55100
C1578       C  0.67820326  0.87677645  0.63863208     0.09000
H1579       H  0.56850234  0.81377441  0.64823744     0.13500
H1580       H  0.71235350  0.81180905  0.62342885    -0.00800
H1581       H  0.65621344  0.82061603  0.76301572     0.13800
H1582       H  0.63723561  0.92888583  0.66773476     0.13600
C1583       C  0.63280953  0.55268985  0.61051956     0.85400
C1584       C  0.60685633  0.57125626  0.64976915    -0.54900
C1585       C  0.57113122  0.59917688  0.63300623     0.08300
C1586       C  0.56450551  0.60428540  0.57742069     0.19200
C1587       C  0.59815060  0.52748709  0.57876975    -0.55600
C1588       C  0.56207262  0.55372381  0.56063757     0.08400
C1589       C  0.64633729  0.59579869  0.58011188    -0.55100
C1590       C  0.61145583  0.62286514  0.56290160     0.09000
H1591       H  0.61531433  0.56256730  0.68763580     0.13500
H1592       H  0.53503970  0.62629207  0.56426273    -0.00800
H1593       H  0.60139196  0.49103831  0.57237187     0.13800
H1594       H  0.68120544  0.60527992  0.57472889     0.13600
O1595       O  0.66165790  0.81493724  0.98226946    -0.75600
O1596       O  0.65866990  0.68621527  0.53414060    -0.75600
O1597       O  0.66939723  0.73075402  0.94787552    -0.75600
O1598       O  0.66456630  0.76926518  0.56928226    -0.75700
O1599       O  0.58971976  0.77691323  0.56447926    -0.75600
O1600       O  0.59446789  0.72650146  0.93894602    -0.75600
O1601       O  0.58363711  0.69238438  0.52921238    -0.75600
O1602       O  0.58674891  0.81139320  0.97303209    -0.75600
Ni1603     Ni  0.66635278  0.75025094  0.50862365     1.25400
Ni1604     Ni  0.58571717  0.75183307  0.50101988     1.25400
C1605       C  0.62270076  0.83380031  0.96937009     0.86600
C1606       C  0.61893136  0.66912432  0.54052058     0.86600
C1607       C  0.63451601  0.71976152  0.92411573     0.86600
C1608       C  0.62881014  0.78175954  0.58656048     0.86800
C1609       C  0.96773512  0.96633267  0.53469065     0.85400
C1610       C  0.50264068  0.94112353  0.50570118    -0.54900
C1611       C  0.52897933  0.96996071  0.97708680     0.08300
C1612       C  0.51639631  0.52260878  0.98080723     0.19200
C1613       C  0.49637324  0.00088122  0.56251727    -0.55600
C1614       C  0.52239944  0.53035181  0.53569921     0.08400
C1615       C  0.94010062  0.99655859  0.49602190    -0.55100
C1616       C  0.96393488  0.52673618  0.96785923     0.09000
H1617       H  0.50670005  0.90379409  0.50844557     0.13500
H1618       H  0.53650785  0.54698874  0.95844383    -0.00800
H1619       H  0.49865652  0.49936608  0.60148749     0.13800
H1620       H  0.90343913  0.99666300  0.99358872     0.13600
C1621       C  0.78639061  0.71468509  0.72498552     0.85400
C1622       C  0.75988214  0.68914586  0.76441248    -0.54900
C1623       C  0.73489450  0.71600442  0.79127463     0.08300
C1624       C  0.74181842  0.76943413  0.77765463     0.19200
C1625       C  0.75108510  0.74664194  0.69635591    -0.55600
C1626       C  0.72774938  0.77604149  0.72275366     0.08400
C1627       C  0.81654726  0.74847588  0.75244868    -0.55100
C1628       C  0.79433087  0.77852425  0.77993897     0.09000
H1629       H  0.75725403  0.65164162  0.76758927     0.13500
H1630       H  0.72329511  0.79228548  0.80008761    -0.00800
H1631       H  0.74504462  0.74528820  0.65790810     0.13800
H1632       H  0.85274205  0.74935265  0.74926637     0.13600
loop_ 
_geom_bond_atom_site_label_1 
_geom_bond_atom_site_label_2 
_geom_bond_distance 
_geom_bond_site_symmetry_2 
_ccdc_geom_bond_type 
O1           C11   1.295       .  A
O1         Ni825   1.957       .  S
O2           C12   1.297       .  A
O2           Ni9   1.969       .  S
O3           C13   1.255       .  A
O3         Ni825   1.831       .  S
O4           C14   1.262       .  A
O4           Ni9   1.849       .  S
O5           C14   1.295       .  A
O5         Ni826   1.970       .  S
O6           C13   1.300       .  A
O6          Ni10   1.981       .  S
O7           C12   1.261       .  A
O7         Ni826   1.840       .  S
O8           C11   1.258       .  A
O8          Ni10   1.833       .  S
Ni9         O817   1.957   1_455  S
Ni9         O819   1.831   1_455  S
Ni9        Ni826   2.388       .  S
Ni10        O821   1.970       .  S
Ni10        O823   1.840       .  S
Ni10       Ni825   2.388       .  S
C11          C62   1.459       .  S
C12         C119   1.497       .  S
C13          C22   1.469       .  S
C14         C157   1.466       .  S
C15          C78   1.486       .  S
C15          C16   1.504       .  S
C15          C21   1.540       .  S
C15          C19   1.549       .  S
C16          H23   1.088       .  S
C16          C17   1.368       .  D
C17          C37   1.469       .  S
C17          C18   1.568       .  S
C18          C22   1.566       .  S
C18          C20   1.560       .  S
C18          H24   1.110       .  S
C19          H25   1.087       .  S
C19          C20   1.361       .  D
C20         C188   1.528       .  S
C21          H26   1.087       .  S
C21          C22   1.354       .  D
O27          C37   1.296       .  A
O27         Ni35   1.973       .  S
O28          C38   1.302       .  A
O28        Ni443   1.984       .  S
O29          C39   1.261       .  A
O29         Ni35   1.848       .  S
O30          C40   1.262       .  A
O30        Ni443   1.864       .  S
O31          C40   1.301       .  A
O31        Ni444   1.991       .  S
O32          C39   1.301       .  A
O32         Ni36   1.995       .  S
O33          C38   1.260       .  A
O33        Ni444   1.842       .  S
O34          C37   1.262       .  A
O34         Ni36   1.853       .  S
Ni35        O436   1.984   1_545  S
Ni35        O438   1.864   1_545  S
Ni35        Ni36   2.384       .  S
Ni36        O439   1.991   1_545  S
Ni36        O441   1.842   1_545  S
C38         C131   1.510       .  S
C39         C126   1.487       .  S
C40          C88   1.484       .  S
O41          C51   1.292       .  A
O41         Ni49   1.957       .  S
O42          C52   1.297       .  A
O42        Ni457   1.972   1_545  S
O43          C53   1.260       .  A
O43         Ni49   1.838       .  S
O44          C54   1.261       .  A
O44        Ni457   1.835   1_545  S
O45          C54   1.294       .  A
O45        Ni458   1.956   1_545  S
O46          C53   1.293       .  A
O46         Ni50   1.961       .  S
O47          C52   1.255       .  A
O47        Ni458   1.799   1_545  S
O48          C51   1.257       .  A
O48         Ni50   1.801       .  S
Ni49        O450   1.972       .  S
Ni49        O452   1.835       .  S
Ni49        Ni50   2.394       .  S
Ni50        O453   1.956       .  S
Ni50        O455   1.799       .  S
C51          C93   1.471       .  S
C52         C155   1.478       .  S
C53         C150   1.454       .  S
C54          C55   1.483       .  S
C55          C56   1.540       .  S
C55          C61   1.532       .  S
C55          C59   1.506       .  S
C56          H63   1.086       .  S
C56          C57   1.372       .  D
C57          C58   1.571       .  S
C57         C193   1.575       .  S
C58          C62   1.556       .  S
C58          C60   1.552       .  S
C58          H64   1.109       .  S
C59          H65   1.088       .  S
C59          C60   1.367       .  D
C60          C79   1.459       .  S
C61          H66   1.088       .  S
C61          C62   1.348       .  D
O67          C77   1.298       .  A
O67         Ni75   1.953   1_554  S
O68          C78   1.299       .  A
O68        Ni279   1.975       .  S
O69          C79   1.258       .  A
O69         Ni75   1.835   1_554  S
O70          C80   1.250       .  A
O70        Ni279   1.819       .  S
O71          C80   1.301       .  A
O71        Ni280   1.965       .  S
O72          C79   1.296       .  A
O72         Ni76   1.971       .  S
O73          C78   1.253       .  A
O73        Ni280   1.811       .  S
O74          C77   1.249       .  A
O74         Ni76   1.806       .  S
Ni75        O272   1.975       .  S
Ni75        O274   1.819       .  S
Ni75        Ni76   2.396   1_556  S
Ni76        O275   1.965   1_554  S
Ni76        O277   1.811   1_554  S
C77         C100   1.442       .  S
C80          C83   1.451       .  S
C81         C117   1.485       .  S
C81          C82   1.530       .  S
C81          C87   1.504       .  S
C81          C85   1.547       .  S
C82          H89   1.089       .  S
C82          C83   1.333       .  D
C83          C84   1.559       .  S
C84          C88   1.577       .  S
C84          C86   1.579       .  S
C84          H90   1.110       .  S
C85          H91   1.086       .  S
C85          C86   1.372       .  D
C86         C200   1.557       .  S
C87          H92   1.087       .  S
C87          C88   1.372       .  D
C93          C94   1.503       .  S
C93          C99   1.521       .  S
C93          C97   1.546       .  S
C94         H101   1.086       .  S
C94          C95   1.374       .  D
C95         C115   1.451       .  S
C95          C96   1.562       .  S
C96         C100   1.560       .  S
C96          C98   1.559       .  S
C96         H102   1.109       .  S
C97         H103   1.087       .  S
C97          C98   1.370       .  D
C98         C181   1.571       .  S
C99         H104   1.089       .  S
C99         C100   1.334       .  D
O105        C115   1.293       .  A
O105       Ni929   1.959       .  S
O106        C116   1.294       .  A
O106       Ni113   1.967       .  S
O107        C117   1.258       .  A
O107       Ni929   1.798       .  S
O108        C118   1.257       .  A
O108       Ni113   1.815       .  S
O109        C118   1.294       .  A
O109       Ni114   1.953       .  S
O110        C117   1.294       .  A
O110       Ni930   1.974       .  S
O111        C116   1.263       .  A
O111       Ni114   1.849       .  S
O112        C115   1.260       .  A
O112       Ni930   1.843       .  S
Ni113       O921   1.959   1_455  S
Ni113       O923   1.798   1_455  S
Ni113      Ni114   2.392       .  S
Ni114       O926   1.974   1_455  S
Ni114       O928   1.843   1_455  S
C116        C133   1.464       .  S
C118        C143   1.472       .  S
C119        C120   1.518       .  S
C119        C125   1.515       .  S
C119        C123   1.553       .  S
C120        H127   1.088       .  S
C120        C121   1.343       .  D
C121        C179   1.460       .  S
C121        C122   1.572       .  S
C122        C126   1.569       .  S
C122        C124   1.561       .  S
C122        H128   1.110       .  S
C123        H129   1.086       .  S
C123        C124   1.374       .  D
C124        C195   1.534       .  S
C125        H130   1.088       .  S
C125        C126   1.377       .  D
C131        C132   1.506       .  S
C131        C137   1.534       .  S
C131        C135   1.566       .  S
C132        H139   1.088       .  S
C132        C133   1.363       .  D
C133        C134   1.546       .  S
C134        C138   1.559       .  S
C134        C136   1.571       .  S
C134        H140   1.109       .  S
C135        H141   1.085       .  S
C135        C136   1.386       .  D
C136        C183   1.554       .  S
C137        H142   1.088       .  S
C137        C138   1.345       .  D
C138        C177   1.467       .  S
C143        C144   1.532       .  S
C143        C149   1.506       .  S
C143        C147   1.551       .  S
C144        H151   1.088       .  S
C144        C145   1.345       .  D
C145        C180   1.456       .  S
C145        C146   1.558       .  S
C146        C150   1.549       .  S
C146        C148   1.559       .  S
C146        H152   1.108       .  S
C147        H153   1.085       .  S
C147        C148   1.366       .  D
C148        C198   1.528       .  S
C149        H154   1.088       .  S
C149        C150   1.368       .  D
C155        C156   1.505       .  S
C155        C161   1.529       .  S
C155        C159   1.541       .  S
C156        H163   1.087       .  S
C156        C157   1.372       .  D
C157        C158   1.554       .  S
C158        C162   1.562       .  S
C158        C160   1.569       .  S
C158        H164   1.110       .  S
C159        H165   1.087   1_545  S
C159        C160   1.364       .  D
C160        C186   1.521       .  S
C161        H166   1.088       .  S
C161        C162   1.342       .  D
C162        C178   1.461       .  S
O167        C177   1.299       .  A
O167       Ni379   1.965       .  S
O168        C178   1.299       .  A
O168       Ni175   1.958       .  S
O169        C179   1.253       .  A
O169       Ni379   1.836       .  S
O170        C180   1.254       .  A
O170       Ni175   1.825       .  S
O171        C180   1.297       .  A
O171       Ni176   1.963       .  S
O172        C179   1.300       .  A
O172       Ni380   1.963       .  S
O173        C178   1.256       .  A
O173       Ni176   1.845       .  S
O174        C177   1.257       .  A
O174       Ni380   1.844       .  S
Ni175       O371   1.965   1_554  S
Ni175       O373   1.836   1_554  S
Ni175      Ni176   2.392       .  S
Ni176       O376   1.963   1_554  S
Ni176       O378   1.844   1_554  S
C181        C187   1.540   1_554  S
C181        C998   1.561       .  S
C181       C1001   1.540       .  S
C182        C997   1.561   1_455  S
C182        H189   1.084       .  S
C182        C387   1.391   1_554  D
C183        C592   1.580       .  S
C183        C386   1.391       .  D
C184        C591   1.580   1_545  S
C184       C1004   1.582   1_455  S
C184        C390   1.569       .  S
C184        H190   1.109       .  S
C185        C997   1.540       .  S
C185        H599   1.087       .  S
C185        C594   1.368   1_655  D
C186        C388   1.569   1_554  S
C186        C593   1.368   1_455  D
C187        H396   1.087       .  S
C187        C800   1.363       .  D
C188       C1000   1.582       .  S
C188        C799   1.363   1_545  D
H191        C593   1.087   1_565  S
H192        C391   1.087       .  S
C193        C194   1.541       .  S
C193        C199   1.544       .  S
C193        C197   1.546       .  S
C194        H201   1.087       .  S
C194        C195   1.364       .  D
C195        C196   1.584       .  S
C196        C200   1.581       .  S
C196        C198   1.568       .  S
C196        H202   1.109       .  S
C197        H203   1.085       .  S
C197        C198   1.375       .  D
C199        H204   1.084       .  S
C199        C200   1.389       .  D
O205        C215   1.295       .  A
O205      Ni1029   1.957       .  S
O206        C216   1.297       .  A
O206       Ni213   1.969       .  S
O207        C217   1.255       .  A
O207      Ni1029   1.831       .  S
O208        C218   1.262       .  A
O208       Ni213   1.849       .  S
O209        C218   1.295       .  A
O209      Ni1030   1.970       .  S
O210        C217   1.300       .  A
O210       Ni214   1.981       .  S
O211        C216   1.261       .  A
O211      Ni1030   1.840       .  S
O212        C215   1.258       .  A
O212       Ni214   1.833       .  S
Ni213      O1021   1.957   1_455  S
Ni213      O1023   1.831   1_455  S
Ni213     Ni1030   2.388       .  S
Ni214      O1025   1.970       .  S
Ni214      O1027   1.840       .  S
Ni214     Ni1029   2.388       .  S
C215        C266   1.459       .  S
C216        C323   1.497       .  S
C217        C226   1.469       .  S
C218        C361   1.466       .  S
C219        C282   1.486       .  S
C219        C220   1.504       .  S
C219        C225   1.540       .  S
C219        C223   1.549       .  S
C220        H227   1.088       .  S
C220        C221   1.368       .  D
C221        C241   1.469       .  S
C221        C222   1.568       .  S
C222        C226   1.566       .  S
C222        C224   1.560       .  S
C222        H228   1.110       .  S
C223        H229   1.087   1_556  S
C223        C224   1.361       .  D
C224        C392   1.528       .  S
C225        H230   1.087       .  S
C225        C226   1.354       .  D
O231        C241   1.296       .  A
O231       Ni239   1.973       .  S
O232        C242   1.302       .  A
O232       Ni647   1.984       .  S
O233        C243   1.261       .  A
O233       Ni239   1.848       .  S
O234        C244   1.262       .  A
O234       Ni647   1.864       .  S
O235        C244   1.301       .  A
O235       Ni648   1.991       .  S
O236        C243   1.301       .  A
O236       Ni240   1.995       .  S
O237        C242   1.260       .  A
O237       Ni648   1.842       .  S
O238        C241   1.262       .  A
O238       Ni240   1.853       .  S
Ni239       O640   1.984   1_545  S
Ni239       O642   1.864   1_545  S
Ni239      Ni240   2.384       .  S
Ni240       O643   1.991   1_545  S
Ni240       O645   1.842   1_545  S
C242        C335   1.510       .  S
C243        C330   1.487       .  S
C244        C292   1.484       .  S
O245        C255   1.292       .  A
O245       Ni253   1.957       .  S
O246        C256   1.297       .  A
O246       Ni661   1.972   1_545  S
O247        C257   1.260       .  A
O247       Ni253   1.838       .  S
O248        C258   1.261       .  A
O248       Ni661   1.835   1_545  S
O249        C258   1.294       .  A
O249       Ni662   1.956   1_545  S
O250        C257   1.293       .  A
O250       Ni254   1.961       .  S
O251        C256   1.255       .  A
O251       Ni662   1.799   1_545  S
O252        C255   1.257       .  A
O252       Ni254   1.801       .  S
Ni253       O654   1.972       .  S
Ni253       O656   1.835       .  S
Ni253      Ni254   2.394       .  S
Ni254       O657   1.956       .  S
Ni254       O659   1.799       .  S
C255        C297   1.471       .  S
C256        C359   1.478       .  S
C257        C354   1.454       .  S
C258        C259   1.483       .  S
C259        C260   1.540       .  S
C259        C265   1.532       .  S
C259        C263   1.506       .  S
C260        H267   1.086       .  S
C260        C261   1.372       .  D
C261        C262   1.571       .  S
C261        C397   1.575       .  S
C262        C266   1.556       .  S
C262        C264   1.552       .  S
C262        H268   1.109       .  S
C263        H269   1.088       .  S
C263        C264   1.367       .  D
C264        C283   1.459       .  S
C265        H270   1.088       .  S
C265        C266   1.348       .  D
O271        C281   1.298       .  A
O271       Ni279   1.953       .  S
O272        C282   1.299       .  A
O273        C283   1.258       .  A
O273       Ni279   1.835       .  S
O274        C284   1.250       .  A
O275        C284   1.301       .  A
O276        C283   1.296       .  A
O276       Ni280   1.971       .  S
O277        C282   1.253       .  A
O278        C281   1.249       .  A
O278       Ni280   1.806       .  S
Ni279      Ni280   2.396       .  S
C281        C304   1.442       .  S
C284        C287   1.451       .  S
C285        C321   1.485       .  S
C285        C286   1.530       .  S
C285        C291   1.504       .  S
C285        C289   1.547       .  S
C286        H293   1.089       .  S
C286        C287   1.333       .  D
C287        C288   1.559       .  S
C288        C292   1.577       .  S
C288        C290   1.579       .  S
C288        H294   1.110       .  S
C289        H295   1.086       .  S
C289        C290   1.372       .  D
C290        C404   1.557       .  S
C291        H296   1.087       .  S
C291        C292   1.372       .  D
C297        C298   1.503       .  S
C297        C303   1.521       .  S
C297        C301   1.546       .  S
C298        H305   1.086       .  S
C298        C299   1.374       .  D
C299        C319   1.451       .  S
C299        C300   1.562       .  S
C300        C304   1.560       .  S
C300        C302   1.559       .  S
C300        H306   1.109       .  S
C301        H307   1.087       .  S
C301        C302   1.370       .  D
C302        C385   1.571       .  S
C303        H308   1.089       .  S
C303        C304   1.334       .  D
O309        C319   1.293       .  A
O309      Ni1133   1.959       .  S
O310        C320   1.294       .  A
O310       Ni317   1.967       .  S
O311        C321   1.258       .  A
O311      Ni1133   1.798       .  S
O312        C322   1.257       .  A
O312       Ni317   1.815       .  S
O313        C322   1.294       .  A
O313       Ni318   1.953       .  S
O314        C321   1.294       .  A
O314      Ni1134   1.974       .  S
O315        C320   1.263       .  A
O315       Ni318   1.849       .  S
O316        C319   1.260       .  A
O316      Ni1134   1.843       .  S
Ni317      O1125   1.959   1_455  S
Ni317      O1127   1.798   1_455  S
Ni317      Ni318   2.392       .  S
Ni318      O1130   1.974   1_455  S
Ni318      O1132   1.843   1_455  S
C320        C337   1.464       .  S
C322        C347   1.472       .  S
C323        C324   1.518       .  S
C323        C329   1.515       .  S
C323        C327   1.553       .  S
C324        H331   1.088       .  S
C324        C325   1.343       .  D
C325        C383   1.460       .  S
C325        C326   1.572       .  S
C326        C330   1.569       .  S
C326        C328   1.561       .  S
C326        H332   1.110       .  S
C327        H333   1.086       .  S
C327        C328   1.374       .  D
C328        C399   1.534       .  S
C329        H334   1.088       .  S
C329        C330   1.377       .  D
C335        C336   1.506       .  S
C335        C341   1.534       .  S
C335        C339   1.566       .  S
C336        H343   1.088       .  S
C336        C337   1.363       .  D
C337        C338   1.546       .  S
C338        C342   1.559       .  S
C338        C340   1.571       .  S
C338        H344   1.109       .  S
C339        H345   1.085       .  S
C339        C340   1.386       .  D
C340        C387   1.554       .  S
C341        H346   1.088       .  S
C341        C342   1.345       .  D
C342        C381   1.467       .  S
C347        C348   1.532       .  S
C347        C353   1.506       .  S
C347        C351   1.551       .  S
C348        H355   1.088       .  S
C348        C349   1.345       .  D
C349        C384   1.456       .  S
C349        C350   1.558       .  S
C350        C354   1.549       .  S
C350        C352   1.559       .  S
C350        H356   1.108       .  S
C351        H357   1.085       .  S
C351        C352   1.366       .  D
C352        C402   1.528       .  S
C353        H358   1.088       .  S
C353        C354   1.368       .  D
C359        C360   1.505       .  S
C359        C365   1.529       .  S
C359        C363   1.541       .  S
C360        H367   1.087       .  S
C360        C361   1.372       .  D
C361        C362   1.554       .  S
C362        C366   1.562       .  S
C362        C364   1.569       .  S
C362        H368   1.110       .  S
C363        H369   1.087   1_545  S
C363        C364   1.364       .  D
C364        C390   1.521       .  S
C365        H370   1.088       .  S
C365        C366   1.342       .  D
C366        C382   1.461       .  S
O371        C381   1.299       .  A
O372        C382   1.299       .  A
O372       Ni379   1.958       .  S
O373        C383   1.253       .  A
O374        C384   1.254       .  A
O374       Ni379   1.825       .  S
O375        C384   1.297       .  A
O375       Ni380   1.963       .  S
O376        C383   1.300       .  A
O377        C382   1.256       .  A
O377       Ni380   1.845       .  S
O378        C381   1.257       .  A
Ni379      Ni380   2.392       .  S
C385       C1202   1.561       .  S
C385        C391   1.540       .  S
C385       C1205   1.540       .  S
C386       C1201   1.561   1_455  S
C386        H393   1.084       .  S
C387        C796   1.580       .  S
C388        C795   1.580   1_545  S
C388       C1208   1.582   1_455  S
C388        H394   1.109       .  S
C389       C1201   1.540       .  S
C389        H803   1.087       .  S
C389        C798   1.368   1_655  D
C390        C797   1.368   1_455  D
C391        C596   1.363       .  D
C392       C1204   1.582       .  S
C392        C595   1.363   1_545  D
H395        C797   1.087   1_565  S
C397        C398   1.541       .  S
C397        C403   1.544       .  S
C397        C401   1.546       .  S
C398        H405   1.087       .  S
C398        C399   1.364       .  D
C399        C400   1.584       .  S
C400        C404   1.581       .  S
C400        C402   1.568       .  S
C400        H406   1.109       .  S
C401        H407   1.085       .  S
C401        C402   1.375       .  D
C403        H408   1.084       .  S
C403        C404   1.389       .  D
O409        C419   1.295       .  A
O409      Ni1233   1.957       .  S
O410        C420   1.297       .  A
O410       Ni417   1.969       .  S
O411        C421   1.255       .  A
O411      Ni1233   1.831       .  S
O412        C422   1.262       .  A
O412       Ni417   1.849       .  S
O413        C422   1.295       .  A
O413      Ni1234   1.970       .  S
O414        C421   1.300       .  A
O414       Ni418   1.981       .  S
O415        C420   1.261       .  A
O415      Ni1234   1.840       .  S
O416        C419   1.258       .  A
O416       Ni418   1.833       .  S
Ni417      O1225   1.957   1_455  S
Ni417      O1227   1.831   1_455  S
Ni417     Ni1234   2.388       .  S
Ni418      O1229   1.970       .  S
Ni418      O1231   1.840       .  S
Ni418     Ni1233   2.388       .  S
C419        C470   1.459       .  S
C420        C527   1.497       .  S
C421        C430   1.469       .  S
C422        C565   1.466       .  S
C423        C486   1.486       .  S
C423        C424   1.504       .  S
C423        C429   1.540       .  S
C423        C427   1.549       .  S
C424        H431   1.088       .  S
C424        C425   1.368       .  D
C425        C445   1.469       .  S
C425        C426   1.568       .  S
C426        C430   1.566       .  S
C426        C428   1.560       .  S
C426        H432   1.110       .  S
C427        H433   1.087       .  S
C427        C428   1.361       .  D
C428        C596   1.528       .  S
C429        H434   1.087       .  S
C429        C430   1.354       .  D
O435        C445   1.296       .  A
O435       Ni443   1.973       .  S
O436        C446   1.302       .  A
O437        C447   1.261       .  A
O437       Ni443   1.848       .  S
O438        C448   1.262       .  A
O439        C448   1.301       .  A
O440        C447   1.301       .  A
O440       Ni444   1.995       .  S
O441        C446   1.260       .  A
O442        C445   1.262       .  A
O442       Ni444   1.853       .  S
Ni443      Ni444   2.384       .  S
C446        C539   1.510       .  S
C447        C534   1.487       .  S
C448        C496   1.484       .  S
O449        C459   1.292       .  A
O449       Ni457   1.957       .  S
O450        C460   1.297       .  A
O451        C461   1.260       .  A
O451       Ni457   1.838       .  S
O452        C462   1.261       .  A
O453        C462   1.294       .  A
O454        C461   1.293       .  A
O454       Ni458   1.961       .  S
O455        C460   1.255       .  A
O456        C459   1.257       .  A
O456       Ni458   1.801       .  S
Ni457      Ni458   2.394       .  S
C459        C501   1.471       .  S
C460        C563   1.478       .  S
C461        C558   1.454       .  S
C462        C463   1.483       .  S
C463        C464   1.540       .  S
C463        C469   1.532       .  S
C463        C467   1.506       .  S
C464        H471   1.086       .  S
C464        C465   1.372       .  D
C465        C466   1.571       .  S
C465        C601   1.575       .  S
C466        C470   1.556       .  S
C466        C468   1.552       .  S
C466        H472   1.109       .  S
C467        H473   1.088       .  S
C467        C468   1.367       .  D
C468        C487   1.459       .  S
C469        H474   1.088       .  S
C469        C470   1.348       .  D
O475        C485   1.298       .  A
O475       Ni483   1.953   1_554  S
O476        C486   1.299       .  A
O476       Ni687   1.975       .  S
O477        C487   1.258       .  A
O477       Ni483   1.835   1_554  S
O478        C488   1.250       .  A
O478       Ni687   1.819       .  S
O479        C488   1.301       .  A
O479       Ni688   1.965       .  S
O480        C487   1.296       .  A
O480       Ni484   1.971       .  S
O481        C486   1.253       .  A
O481       Ni688   1.811       .  S
O482        C485   1.249       .  A
O482       Ni484   1.806       .  S
Ni483       O680   1.975       .  S
Ni483       O682   1.819       .  S
Ni483      Ni484   2.396   1_556  S
Ni484       O683   1.965   1_554  S
Ni484       O685   1.811   1_554  S
C485        C508   1.442       .  S
C488        C491   1.451       .  S
C489        C525   1.485       .  S
C489        C490   1.530       .  S
C489        C495   1.504       .  S
C489        C493   1.547       .  S
C490        H497   1.089       .  S
C490        C491   1.333       .  D
C491        C492   1.559       .  S
C492        C496   1.577       .  S
C492        C494   1.579       .  S
C492        H498   1.110       .  S
C493        H499   1.086       .  S
C493        C494   1.372       .  D
C494        C608   1.557       .  S
C495        H500   1.087       .  S
C495        C496   1.372       .  D
C501        C502   1.503       .  S
C501        C507   1.521       .  S
C501        C505   1.546       .  S
C502        H509   1.086       .  S
C502        C503   1.374       .  D
C503        C523   1.451       .  S
C503        C504   1.562       .  S
C504        C508   1.560       .  S
C504        C506   1.559       .  S
C504        H510   1.109       .  S
C505        H511   1.087       .  S
C505        C506   1.370       .  D
C506        C589   1.571       .  S
C507        H512   1.089       .  S
C507        C508   1.334       .  D
O513        C523   1.293       .  A
O513      Ni1337   1.959       .  S
O514        C524   1.294       .  A
O514       Ni521   1.967       .  S
O515        C525   1.258       .  A
O515      Ni1337   1.798       .  S
O516        C526   1.257       .  A
O516       Ni521   1.815       .  S
O517        C526   1.294       .  A
O517       Ni522   1.953       .  S
O518        C525   1.294       .  A
O518      Ni1338   1.974       .  S
O519        C524   1.263       .  A
O519       Ni522   1.849       .  S
O520        C523   1.260       .  A
O520      Ni1338   1.843       .  S
Ni521      O1329   1.959   1_455  S
Ni521      O1331   1.798   1_455  S
Ni521      Ni522   2.392       .  S
Ni522      O1334   1.974   1_455  S
Ni522      O1336   1.843   1_455  S
C524        C541   1.464       .  S
C526        C551   1.472       .  S
C527        C528   1.518       .  S
C527        C533   1.515       .  S
C527        C531   1.553       .  S
C528        H535   1.088       .  S
C528        C529   1.343       .  D
C529        C587   1.460       .  S
C529        C530   1.572       .  S
C530        C534   1.569       .  S
C530        C532   1.561       .  S
C530        H536   1.110       .  S
C531        H537   1.086       .  S
C531        C532   1.374       .  D
C532        C603   1.534       .  S
C533        H538   1.088       .  S
C533        C534   1.377       .  D
C539        C540   1.506       .  S
C539        C545   1.534       .  S
C539        C543   1.566       .  S
C540        H547   1.088       .  S
C540        C541   1.363       .  D
C541        C542   1.546       .  S
C542        C546   1.559       .  S
C542        C544   1.571       .  S
C542        H548   1.109       .  S
C543        H549   1.085   1_565  S
C543        C544   1.386       .  D
C544        C591   1.554       .  S
C545        H550   1.088       .  S
C545        C546   1.345       .  D
C546        C585   1.467       .  S
C551        C552   1.532       .  S
C551        C557   1.506       .  S
C551        C555   1.551       .  S
C552        H559   1.088       .  S
C552        C553   1.345       .  D
C553        C588   1.456       .  S
C553        C554   1.558       .  S
C554        C558   1.549       .  S
C554        C556   1.559       .  S
C554        H560   1.108       .  S
C555        H561   1.085       .  S
C555        C556   1.366       .  D
C556        C606   1.528       .  S
C557        H562   1.088       .  S
C557        C558   1.368       .  D
C563        C564   1.505       .  S
C563        C569   1.529       .  S
C563        C567   1.541       .  S
C564        H571   1.087       .  S
C564        C565   1.372       .  D
C565        C566   1.554       .  S
C566        C570   1.562       .  S
C566        C568   1.569       .  S
C566        H572   1.110       .  S
C567        H573   1.087       .  S
C567        C568   1.364       .  D
C568        C594   1.521       .  S
C569        H574   1.088       .  S
C569        C570   1.342       .  D
C570        C586   1.461       .  S
O575        C585   1.299       .  A
O575       Ni787   1.965       .  S
O576        C586   1.299       .  A
O576       Ni583   1.958       .  S
O577        C587   1.253       .  A
O577       Ni787   1.836       .  S
O578        C588   1.254       .  A
O578       Ni583   1.825       .  S
O579        C588   1.297       .  A
O579       Ni584   1.963       .  S
O580        C587   1.300       .  A
O580       Ni788   1.963       .  S
O581        C586   1.256       .  A
O581       Ni584   1.845       .  S
O582        C585   1.257       .  A
O582       Ni788   1.844       .  S
Ni583       O779   1.965   1_554  S
Ni583       O781   1.836   1_554  S
Ni583      Ni584   2.392       .  S
Ni584       O784   1.963   1_554  S
Ni584       O786   1.844   1_554  S
C589       C1406   1.561       .  S
C589        C595   1.540   1_554  S
C589       C1409   1.540   1_565  S
C590       C1405   1.561   1_455  S
C590        H597   1.084       .  S
C590        C795   1.391   1_554  D
C591        C794   1.391       .  D
C592       C1412   1.582   1_455  S
C592        C798   1.569       .  S
C592        H598   1.109       .  S
C593       C1405   1.540   1_545  S
C594        C796   1.569   1_554  S
C595        H804   1.087       .  S
C596       C1408   1.582       .  S
H600        C799   1.087       .  S
C601        C602   1.541       .  S
C601        C607   1.544       .  S
C601        C605   1.546       .  S
C602        H609   1.087       .  S
C602        C603   1.364       .  D
C603        C604   1.584       .  S
C604        C608   1.581       .  S
C604        C606   1.568       .  S
C604        H610   1.109       .  S
C605        H611   1.085       .  S
C605        C606   1.375       .  D
C607        H612   1.084       .  S
C607        C608   1.389       .  D
O613        C623   1.295       .  A
O613      Ni1437   1.957       .  S
O614        C624   1.297       .  A
O614       Ni621   1.969       .  S
O615        C625   1.255       .  A
O615      Ni1437   1.831       .  S
O616        C626   1.262       .  A
O616       Ni621   1.849       .  S
O617        C626   1.295       .  A
O617      Ni1438   1.970       .  S
O618        C625   1.300       .  A
O618       Ni622   1.981       .  S
O619        C624   1.261       .  A
O619      Ni1438   1.840       .  S
O620        C623   1.258       .  A
O620       Ni622   1.833       .  S
Ni621      O1429   1.957   1_455  S
Ni621      O1431   1.831   1_455  S
Ni621     Ni1438   2.388       .  S
Ni622      O1433   1.970       .  S
Ni622      O1435   1.840       .  S
Ni622     Ni1437   2.388       .  S
C623        C674   1.459       .  S
C624        C731   1.497       .  S
C625        C634   1.469       .  S
C626        C769   1.466       .  S
C627        C690   1.486       .  S
C627        C628   1.504       .  S
C627        C633   1.540       .  S
C627        C631   1.549       .  S
C628        H635   1.088       .  S
C628        C629   1.368       .  D
C629        C649   1.469       .  S
C629        C630   1.568       .  S
C630        C634   1.566       .  S
C630        C632   1.560       .  S
C630        H636   1.110       .  S
C631        H637   1.087   1_556  S
C631        C632   1.361       .  D
C632        C800   1.528       .  S
C633        H638   1.087       .  S
C633        C634   1.354       .  D
O639        C649   1.296       .  A
O639       Ni647   1.973       .  S
O640        C650   1.302       .  A
O641        C651   1.261       .  A
O641       Ni647   1.848       .  S
O642        C652   1.262       .  A
O643        C652   1.301       .  A
O644        C651   1.301       .  A
O644       Ni648   1.995       .  S
O645        C650   1.260       .  A
O646        C649   1.262       .  A
O646       Ni648   1.853       .  S
Ni647      Ni648   2.384       .  S
C650        C743   1.510       .  S
C651        C738   1.487       .  S
C652        C700   1.484       .  S
O653        C663   1.292       .  A
O653       Ni661   1.957       .  S
O654        C664   1.297       .  A
O655        C665   1.260       .  A
O655       Ni661   1.838       .  S
O656        C666   1.261       .  A
O657        C666   1.294       .  A
O658        C665   1.293       .  A
O658       Ni662   1.961       .  S
O659        C664   1.255       .  A
O660        C663   1.257       .  A
O660       Ni662   1.801       .  S
Ni661      Ni662   2.394       .  S
C663        C705   1.471       .  S
C664        C767   1.478       .  S
C665        C762   1.454       .  S
C666        C667   1.483       .  S
C667        C668   1.540       .  S
C667        C673   1.532       .  S
C667        C671   1.506       .  S
C668        H675   1.086       .  S
C668        C669   1.372       .  D
C669        C670   1.571       .  S
C669        C805   1.575       .  S
C670        C674   1.556       .  S
C670        C672   1.552       .  S
C670        H676   1.109       .  S
C671        H677   1.088       .  S
C671        C672   1.367       .  D
C672        C691   1.459       .  S
C673        H678   1.088       .  S
C673        C674   1.348       .  D
O679        C689   1.298       .  A
O679       Ni687   1.953       .  S
O680        C690   1.299       .  A
O681        C691   1.258       .  A
O681       Ni687   1.835       .  S
O682        C692   1.250       .  A
O683        C692   1.301       .  A
O684        C691   1.296       .  A
O684       Ni688   1.971       .  S
O685        C690   1.253       .  A
O686        C689   1.249       .  A
O686       Ni688   1.806       .  S
Ni687      Ni688   2.396       .  S
C689        C712   1.442       .  S
C692        C695   1.451       .  S
C693        C729   1.485       .  S
C693        C694   1.530       .  S
C693        C699   1.504       .  S
C693        C697   1.547       .  S
C694        H701   1.089       .  S
C694        C695   1.333       .  D
C695        C696   1.559       .  S
C696        C700   1.577       .  S
C696        C698   1.579       .  S
C696        H702   1.110       .  S
C697        H703   1.086       .  S
C697        C698   1.372       .  D
C698        C812   1.557       .  S
C699        H704   1.087       .  S
C699        C700   1.372       .  D
C705        C706   1.503       .  S
C705        C711   1.521       .  S
C705        C709   1.546       .  S
C706        H713   1.086       .  S
C706        C707   1.374       .  D
C707        C727   1.451       .  S
C707        C708   1.562       .  S
C708        C712   1.560       .  S
C708        C710   1.559       .  S
C708        H714   1.109       .  S
C709        H715   1.087       .  S
C709        C710   1.370       .  D
C710        C793   1.571       .  S
C711        H716   1.089       .  S
C711        C712   1.334       .  D
O717        C727   1.293       .  A
O717      Ni1541   1.959       .  S
O718        C728   1.294       .  A
O718       Ni725   1.967       .  S
O719        C729   1.258       .  A
O719      Ni1541   1.798       .  S
O720        C730   1.257       .  A
O720       Ni725   1.815       .  S
O721        C730   1.294       .  A
O721       Ni726   1.953       .  S
O722        C729   1.294       .  A
O722      Ni1542   1.974       .  S
O723        C728   1.263       .  A
O723       Ni726   1.849       .  S
O724        C727   1.260       .  A
O724      Ni1542   1.843       .  S
Ni725      O1533   1.959   1_455  S
Ni725      O1535   1.798   1_455  S
Ni725      Ni726   2.392       .  S
Ni726      O1538   1.974   1_455  S
Ni726      O1540   1.843   1_455  S
C728        C745   1.464       .  S
C730        C755   1.472       .  S
C731        C732   1.518       .  S
C731        C737   1.515       .  S
C731        C735   1.553       .  S
C732        H739   1.088       .  S
C732        C733   1.343       .  D
C733        C791   1.460       .  S
C733        C734   1.572       .  S
C734        C738   1.569       .  S
C734        C736   1.561       .  S
C734        H740   1.110       .  S
C735        H741   1.086       .  S
C735        C736   1.374       .  D
C736        C807   1.534       .  S
C737        H742   1.088       .  S
C737        C738   1.377       .  D
C743        C744   1.506       .  S
C743        C749   1.534       .  S
C743        C747   1.566       .  S
C744        H751   1.088       .  S
C744        C745   1.363       .  D
C745        C746   1.546       .  S
C746        C750   1.559       .  S
C746        C748   1.571       .  S
C746        H752   1.109       .  S
C747        H753   1.085   1_565  S
C747        C748   1.386       .  D
C748        C795   1.554       .  S
C749        H754   1.088       .  S
C749        C750   1.345       .  D
C750        C789   1.467       .  S
C755        C756   1.532       .  S
C755        C761   1.506       .  S
C755        C759   1.551       .  S
C756        H763   1.088       .  S
C756        C757   1.345       .  D
C757        C792   1.456       .  S
C757        C758   1.558       .  S
C758        C762   1.549       .  S
C758        C760   1.559       .  S
C758        H764   1.108       .  S
C759        H765   1.085       .  S
C759        C760   1.366       .  D
C760        C810   1.528       .  S
C761        H766   1.088       .  S
C761        C762   1.368       .  D
C767        C768   1.505       .  S
C767        C773   1.529       .  S
C767        C771   1.541       .  S
C768        H775   1.087       .  S
C768        C769   1.372       .  D
C769        C770   1.554       .  S
C770        C774   1.562       .  S
C770        C772   1.569       .  S
C770        H776   1.110       .  S
C771        H777   1.087       .  S
C771        C772   1.364       .  D
C772        C798   1.521       .  S
C773        H778   1.088       .  S
C773        C774   1.342       .  D
C774        C790   1.461       .  S
O779        C789   1.299       .  A
O780        C790   1.299       .  A
O780       Ni787   1.958       .  S
O781        C791   1.253       .  A
O782        C792   1.254       .  A
O782       Ni787   1.825       .  S
O783        C792   1.297       .  A
O783       Ni788   1.963       .  S
O784        C791   1.300       .  A
O785        C790   1.256       .  A
O785       Ni788   1.845       .  S
O786        C789   1.257       .  A
Ni787      Ni788   2.392       .  S
C793       C1610   1.561       .  S
C793        C799   1.540       .  S
C793       C1613   1.540   1_565  S
C794       C1609   1.561   1_455  S
C794        H801   1.084       .  S
C796       C1616   1.582   1_455  S
C796        H802   1.109       .  S
C797       C1609   1.540   1_545  S
C800       C1612   1.582       .  S
C805        C806   1.541       .  S
C805        C811   1.544       .  S
C805        C809   1.546       .  S
C806        H813   1.087       .  S
C806        C807   1.364       .  D
C807        C808   1.584       .  S
C808        C812   1.581       .  S
C808        C810   1.568       .  S
C808        H814   1.109       .  S
C809        H815   1.085       .  S
C809        C810   1.375       .  D
C811        H816   1.084       .  S
C811        C812   1.389       .  D
O817        C827   1.295       .  A
O818        C828   1.297       .  A
O818       Ni825   1.969       .  S
O819        C829   1.255       .  A
O820        C830   1.262       .  A
O820       Ni825   1.849       .  S
O821        C830   1.295       .  A
O822        C829   1.300       .  A
O822       Ni826   1.981   1_655  S
O823        C828   1.261       .  A
O824        C827   1.258       .  A
O824       Ni826   1.833   1_655  S
C827        C878   1.459       .  S
C828        C935   1.497       .  S
C829        C838   1.469       .  S
C830        C973   1.466       .  S
C831        C894   1.486       .  S
C831        C832   1.504       .  S
C831        C837   1.540       .  S
C831        C835   1.549       .  S
C832        H839   1.088       .  S
C832        C833   1.368       .  D
C833        C853   1.469       .  S
C833        C834   1.568       .  S
C834        C838   1.566       .  S
C834        C836   1.560       .  S
C834        H840   1.110       .  S
C835        H841   1.087       .  S
C835        C836   1.361       .  D
C836       C1004   1.528       .  S
C837        H842   1.087       .  S
C837        C838   1.354       .  D
O843        C853   1.296       .  A
O843       Ni851   1.973       .  S
O844        C854   1.302       .  A
O844      Ni1259   1.984       .  S
O845        C855   1.261       .  A
O845       Ni851   1.848       .  S
O846        C856   1.262       .  A
O846      Ni1259   1.864       .  S
O847        C856   1.301       .  A
O847      Ni1260   1.991       .  S
O848        C855   1.301       .  A
O848       Ni852   1.995       .  S
O849        C854   1.260       .  A
O849      Ni1260   1.842       .  S
O850        C853   1.262       .  A
O850       Ni852   1.853       .  S
Ni851      O1252   1.984   1_545  S
Ni851      O1254   1.864   1_545  S
Ni851      Ni852   2.384       .  S
Ni852      O1255   1.991   1_545  S
Ni852      O1257   1.842   1_545  S
C854        C947   1.510       .  S
C855        C942   1.487       .  S
C856        C904   1.484       .  S
O857        C867   1.292       .  A
O857       Ni865   1.957       .  S
O858        C868   1.297       .  A
O858      Ni1273   1.972   1_545  S
O859        C869   1.260       .  A
O859       Ni865   1.838       .  S
O860        C870   1.261       .  A
O860      Ni1273   1.835   1_545  S
O861        C870   1.294       .  A
O861      Ni1274   1.956   1_545  S
O862        C869   1.293       .  A
O862       Ni866   1.961       .  S
O863        C868   1.255       .  A
O863      Ni1274   1.799   1_545  S
O864        C867   1.257       .  A
O864       Ni866   1.801       .  S
Ni865      O1266   1.972       .  S
Ni865      O1268   1.835       .  S
Ni865      Ni866   2.394       .  S
Ni866      O1269   1.956       .  S
Ni866      O1271   1.799       .  S
C867        C909   1.471       .  S
C868        C971   1.478       .  S
C869        C966   1.454       .  S
C870        C871   1.483       .  S
C871        C872   1.540       .  S
C871        C877   1.532       .  S
C871        C875   1.506       .  S
C872        H879   1.086       .  S
C872        C873   1.372       .  D
C873        C874   1.571       .  S
C873       C1009   1.575       .  S
C874        C878   1.556       .  S
C874        C876   1.552       .  S
C874        H880   1.109       .  S
C875        H881   1.088       .  S
C875        C876   1.367       .  D
C876        C895   1.459       .  S
C877        H882   1.088       .  S
C877        C878   1.348       .  D
O883        C893   1.298       .  A
O883       Ni891   1.953   1_554  S
O884        C894   1.299       .  A
O884      Ni1095   1.975       .  S
O885        C895   1.258       .  A
O885       Ni891   1.835   1_554  S
O886        C896   1.250       .  A
O886      Ni1095   1.819       .  S
O887        C896   1.301       .  A
O887      Ni1096   1.965       .  S
O888        C895   1.296       .  A
O888       Ni892   1.971       .  S
O889        C894   1.253       .  A
O889      Ni1096   1.811       .  S
O890        C893   1.249       .  A
O890       Ni892   1.806       .  S
Ni891      O1088   1.975       .  S
Ni891      O1090   1.819       .  S
Ni891      Ni892   2.396   1_556  S
Ni892      O1091   1.965   1_554  S
Ni892      O1093   1.811   1_554  S
C893        C916   1.442       .  S
C896        C899   1.451       .  S
C897        C933   1.485       .  S
C897        C898   1.530       .  S
C897        C903   1.504       .  S
C897        C901   1.547       .  S
C898        H905   1.089       .  S
C898        C899   1.333       .  D
C899        C900   1.559       .  S
C900        C904   1.577       .  S
C900        C902   1.579       .  S
C900        H906   1.110       .  S
C901        H907   1.086       .  S
C901        C902   1.372       .  D
C902       C1016   1.557       .  S
C903        H908   1.087       .  S
C903        C904   1.372       .  D
C909        C910   1.503       .  S
C909        C915   1.521       .  S
C909        C913   1.546       .  S
C910        H917   1.086       .  S
C910        C911   1.374       .  D
C911        C931   1.451       .  S
C911        C912   1.562       .  S
C912        C916   1.560       .  S
C912        C914   1.559       .  S
C912        H918   1.109       .  S
C913        H919   1.087       .  S
C913        C914   1.370       .  D
C914        C997   1.571       .  S
C915        H920   1.089       .  S
C915        C916   1.334       .  D
O921        C931   1.293       .  A
O922        C932   1.294       .  A
O922       Ni929   1.967       .  S
O923        C933   1.258       .  A
O924        C934   1.257       .  A
O924       Ni929   1.815       .  S
O925        C934   1.294       .  A
O925       Ni930   1.953       .  S
O926        C933   1.294       .  A
O927        C932   1.263       .  A
O927       Ni930   1.849       .  S
O928        C931   1.260       .  A
Ni929      Ni930   2.392       .  S
C932        C949   1.464       .  S
C934        C959   1.472       .  S
C935        C936   1.518       .  S
C935        C941   1.515       .  S
C935        C939   1.553       .  S
C936        H943   1.088       .  S
C936        C937   1.343       .  D
C937        C995   1.460       .  S
C937        C938   1.572       .  S
C938        C942   1.569       .  S
C938        C940   1.561       .  S
C938        H944   1.110       .  S
C939        H945   1.086       .  S
C939        C940   1.374       .  D
C940       C1011   1.534       .  S
C941        H946   1.088       .  S
C941        C942   1.377       .  D
C947        C948   1.506       .  S
C947        C953   1.534       .  S
C947        C951   1.566       .  S
C948        H955   1.088       .  S
C948        C949   1.363       .  D
C949        C950   1.546       .  S
C950        C954   1.559       .  S
C950        C952   1.571       .  S
C950        H956   1.109       .  S
C951        H957   1.085       .  S
C951        C952   1.386       .  D
C952        C999   1.554       .  S
C953        H958   1.088       .  S
C953        C954   1.345       .  D
C954        C993   1.467       .  S
C959        C960   1.532       .  S
C959        C965   1.506       .  S
C959        C963   1.551       .  S
C960        H967   1.088       .  S
C960        C961   1.345       .  D
C961        C996   1.456       .  S
C961        C962   1.558       .  S
C962        C966   1.549       .  S
C962        C964   1.559       .  S
C962        H968   1.108       .  S
C963        H969   1.085       .  S
C963        C964   1.366       .  D
C964       C1014   1.528       .  S
C965        H970   1.088       .  S
C965        C966   1.368       .  D
C971        C972   1.505       .  S
C971        C977   1.529       .  S
C971        C975   1.541       .  S
C972        H979   1.087       .  S
C972        C973   1.372       .  D
C973        C974   1.554       .  S
C974        C978   1.562       .  S
C974        C976   1.569       .  S
C974        H980   1.110       .  S
C975        H981   1.087   1_545  S
C975        C976   1.364       .  D
C976       C1002   1.521       .  S
C977        H982   1.088       .  S
C977        C978   1.342       .  D
C978        C994   1.461       .  S
O983        C993   1.299       .  A
O983      Ni1195   1.965       .  S
O984        C994   1.299       .  A
O984       Ni991   1.958       .  S
O985        C995   1.253       .  A
O985      Ni1195   1.836       .  S
O986        C996   1.254       .  A
O986       Ni991   1.825       .  S
O987        C996   1.297       .  A
O987       Ni992   1.963       .  S
O988        C995   1.300       .  A
O988      Ni1196   1.963       .  S
O989        C994   1.256       .  A
O989       Ni992   1.845       .  S
O990        C993   1.257       .  A
O990      Ni1196   1.844       .  S
Ni991      O1187   1.965   1_554  S
Ni991      O1189   1.836   1_554  S
Ni991      Ni992   2.392       .  S
Ni992      O1192   1.963   1_554  S
Ni992      O1194   1.844   1_554  S
C997       C1003   1.540   1_554  S
C998       H1005   1.084       .  S
C998       C1203   1.391   1_554  D
C999       C1408   1.580       .  S
C999       C1202   1.391       .  D
C1000      C1407   1.580   1_545  S
C1000      C1206   1.569       .  S
C1000      H1006   1.109       .  S
C1001      H1415   1.087       .  S
C1001      C1410   1.368       .  D
C1002      C1204   1.569   1_554  S
C1002      C1409   1.368       .  D
C1003      H1212   1.087       .  S
C1003      C1616   1.363       .  D
C1004      C1615   1.363   1_545  D
H1007      C1409   1.087   1_565  S
H1008      C1207   1.087       .  S
C1009      C1010   1.541       .  S
C1009      C1015   1.544       .  S
C1009      C1013   1.546       .  S
C1010      H1017   1.087       .  S
C1010      C1011   1.364       .  D
C1011      C1012   1.584       .  S
C1012      C1016   1.581       .  S
C1012      C1014   1.568       .  S
C1012      H1018   1.109       .  S
C1013      H1019   1.085       .  S
C1013      C1014   1.375       .  D
C1015      H1020   1.084       .  S
C1015      C1016   1.389       .  D
O1021      C1031   1.295       .  A
O1022      C1032   1.297       .  A
O1022     Ni1029   1.969       .  S
O1023      C1033   1.255       .  A
O1024      C1034   1.262       .  A
O1024     Ni1029   1.849       .  S
O1025      C1034   1.295       .  A
O1026      C1033   1.300       .  A
O1026     Ni1030   1.981   1_655  S
O1027      C1032   1.261       .  A
O1028      C1031   1.258       .  A
O1028     Ni1030   1.833   1_655  S
C1031      C1082   1.459       .  S
C1032      C1139   1.497       .  S
C1033      C1042   1.469       .  S
C1034      C1177   1.466       .  S
C1035      C1098   1.486       .  S
C1035      C1036   1.504       .  S
C1035      C1041   1.540       .  S
C1035      C1039   1.549       .  S
C1036      H1043   1.088       .  S
C1036      C1037   1.368       .  D
C1037      C1057   1.469       .  S
C1037      C1038   1.568       .  S
C1038      C1042   1.566       .  S
C1038      C1040   1.560       .  S
C1038      H1044   1.110       .  S
C1039      H1045   1.087   1_556  S
C1039      C1040   1.361       .  D
C1040      C1208   1.528       .  S
C1041      H1046   1.087       .  S
C1041      C1042   1.354       .  D
O1047      C1057   1.296       .  A
O1047     Ni1055   1.973       .  S
O1048      C1058   1.302       .  A
O1048     Ni1463   1.984       .  S
O1049      C1059   1.261       .  A
O1049     Ni1055   1.848       .  S
O1050      C1060   1.262       .  A
O1050     Ni1463   1.864       .  S
O1051      C1060   1.301       .  A
O1051     Ni1464   1.991       .  S
O1052      C1059   1.301       .  A
O1052     Ni1056   1.995       .  S
O1053      C1058   1.260       .  A
O1053     Ni1464   1.842       .  S
O1054      C1057   1.262       .  A
O1054     Ni1056   1.853       .  S
Ni1055     O1456   1.984   1_545  S
Ni1055     O1458   1.864   1_545  S
Ni1055    Ni1056   2.384       .  S
Ni1056     O1459   1.991   1_545  S
Ni1056     O1461   1.842   1_545  S
C1058      C1151   1.510       .  S
C1059      C1146   1.487       .  S
C1060      C1108   1.484       .  S
O1061      C1071   1.292       .  A
O1061     Ni1069   1.957       .  S
O1062      C1072   1.297       .  A
O1062     Ni1477   1.972   1_545  S
O1063      C1073   1.260       .  A
O1063     Ni1069   1.838       .  S
O1064      C1074   1.261       .  A
O1064     Ni1477   1.835   1_545  S
O1065      C1074   1.294       .  A
O1065     Ni1478   1.956   1_545  S
O1066      C1073   1.293       .  A
O1066     Ni1070   1.961       .  S
O1067      C1072   1.255       .  A
O1067     Ni1478   1.799   1_545  S
O1068      C1071   1.257       .  A
O1068     Ni1070   1.801       .  S
Ni1069     O1470   1.972       .  S
Ni1069     O1472   1.835       .  S
Ni1069    Ni1070   2.394       .  S
Ni1070     O1473   1.956       .  S
Ni1070     O1475   1.799       .  S
C1071      C1113   1.471       .  S
C1072      C1175   1.478       .  S
C1073      C1170   1.454       .  S
C1074      C1075   1.483       .  S
C1075      C1076   1.540       .  S
C1075      C1081   1.532       .  S
C1075      C1079   1.506       .  S
C1076      H1083   1.086       .  S
C1076      C1077   1.372       .  D
C1077      C1078   1.571       .  S
C1077      C1213   1.575       .  S
C1078      C1082   1.556       .  S
C1078      C1080   1.552       .  S
C1078      H1084   1.109       .  S
C1079      H1085   1.088       .  S
C1079      C1080   1.367       .  D
C1080      C1099   1.459       .  S
C1081      H1086   1.088       .  S
C1081      C1082   1.348       .  D
O1087      C1097   1.298       .  A
O1087     Ni1095   1.953       .  S
O1088      C1098   1.299       .  A
O1089      C1099   1.258       .  A
O1089     Ni1095   1.835       .  S
O1090      C1100   1.250       .  A
O1091      C1100   1.301       .  A
O1092      C1099   1.296       .  A
O1092     Ni1096   1.971       .  S
O1093      C1098   1.253       .  A
O1094      C1097   1.249       .  A
O1094     Ni1096   1.806       .  S
Ni1095    Ni1096   2.396       .  S
C1097      C1120   1.442       .  S
C1100      C1103   1.451       .  S
C1101      C1137   1.485       .  S
C1101      C1102   1.530       .  S
C1101      C1107   1.504       .  S
C1101      C1105   1.547       .  S
C1102      H1109   1.089       .  S
C1102      C1103   1.333       .  D
C1103      C1104   1.559       .  S
C1104      C1108   1.577       .  S
C1104      C1106   1.579       .  S
C1104      H1110   1.110       .  S
C1105      H1111   1.086       .  S
C1105      C1106   1.372       .  D
C1106      C1220   1.557       .  S
C1107      H1112   1.087       .  S
C1107      C1108   1.372       .  D
C1113      C1114   1.503       .  S
C1113      C1119   1.521       .  S
C1113      C1117   1.546       .  S
C1114      H1121   1.086       .  S
C1114      C1115   1.374       .  D
C1115      C1135   1.451       .  S
C1115      C1116   1.562       .  S
C1116      C1120   1.560       .  S
C1116      C1118   1.559       .  S
C1116      H1122   1.109       .  S
C1117      H1123   1.087       .  S
C1117      C1118   1.370       .  D
C1118      C1201   1.571       .  S
C1119      H1124   1.089       .  S
C1119      C1120   1.334       .  D
O1125      C1135   1.293       .  A
O1126      C1136   1.294       .  A
O1126     Ni1133   1.967       .  S
O1127      C1137   1.258       .  A
O1128      C1138   1.257       .  A
O1128     Ni1133   1.815       .  S
O1129      C1138   1.294       .  A
O1129     Ni1134   1.953       .  S
O1130      C1137   1.294       .  A
O1131      C1136   1.263       .  A
O1131     Ni1134   1.849       .  S
O1132      C1135   1.260       .  A
Ni1133    Ni1134   2.392       .  S
C1136      C1153   1.464       .  S
C1138      C1163   1.472       .  S
C1139      C1140   1.518       .  S
C1139      C1145   1.515       .  S
C1139      C1143   1.553       .  S
C1140      H1147   1.088       .  S
C1140      C1141   1.343       .  D
C1141      C1199   1.460       .  S
C1141      C1142   1.572       .  S
C1142      C1146   1.569       .  S
C1142      C1144   1.561       .  S
C1142      H1148   1.110       .  S
C1143      H1149   1.086       .  S
C1143      C1144   1.374       .  D
C1144      C1215   1.534       .  S
C1145      H1150   1.088       .  S
C1145      C1146   1.377       .  D
C1151      C1152   1.506       .  S
C1151      C1157   1.534       .  S
C1151      C1155   1.566       .  S
C1152      H1159   1.088       .  S
C1152      C1153   1.363       .  D
C1153      C1154   1.546       .  S
C1154      C1158   1.559       .  S
C1154      C1156   1.571       .  S
C1154      H1160   1.109       .  S
C1155      H1161   1.085       .  S
C1155      C1156   1.386       .  D
C1156      C1203   1.554       .  S
C1157      H1162   1.088       .  S
C1157      C1158   1.345       .  D
C1158      C1197   1.467       .  S
C1163      C1164   1.532       .  S
C1163      C1169   1.506       .  S
C1163      C1167   1.551       .  S
C1164      H1171   1.088       .  S
C1164      C1165   1.345       .  D
C1165      C1200   1.456       .  S
C1165      C1166   1.558       .  S
C1166      C1170   1.549       .  S
C1166      C1168   1.559       .  S
C1166      H1172   1.108       .  S
C1167      H1173   1.085       .  S
C1167      C1168   1.366       .  D
C1168      C1218   1.528       .  S
C1169      H1174   1.088       .  S
C1169      C1170   1.368       .  D
C1175      C1176   1.505       .  S
C1175      C1181   1.529       .  S
C1175      C1179   1.541       .  S
C1176      H1183   1.087       .  S
C1176      C1177   1.372       .  D
C1177      C1178   1.554       .  S
C1178      C1182   1.562       .  S
C1178      C1180   1.569       .  S
C1178      H1184   1.110       .  S
C1179      H1185   1.087   1_545  S
C1179      C1180   1.364       .  D
C1180      C1206   1.521       .  S
C1181      H1186   1.088       .  S
C1181      C1182   1.342       .  D
C1182      C1198   1.461       .  S
O1187      C1197   1.299       .  A
O1188      C1198   1.299       .  A
O1188     Ni1195   1.958       .  S
O1189      C1199   1.253       .  A
O1190      C1200   1.254       .  A
O1190     Ni1195   1.825       .  S
O1191      C1200   1.297       .  A
O1191     Ni1196   1.963       .  S
O1192      C1199   1.300       .  A
O1193      C1198   1.256       .  A
O1193     Ni1196   1.845       .  S
O1194      C1197   1.257       .  A
Ni1195    Ni1196   2.392       .  S
C1201      C1207   1.540       .  S
C1202      H1209   1.084       .  S
C1203      C1612   1.580       .  S
C1204      C1611   1.580   1_545  S
C1204      H1210   1.109       .  S
C1205      H1619   1.087       .  S
C1205      C1614   1.368       .  D
C1206      C1613   1.368       .  D
C1207      C1412   1.363       .  D
C1208      C1411   1.363   1_545  D
H1211      C1613   1.087   1_565  S
C1213      C1214   1.541       .  S
C1213      C1219   1.544       .  S
C1213      C1217   1.546       .  S
C1214      H1221   1.087       .  S
C1214      C1215   1.364       .  D
C1215      C1216   1.584       .  S
C1216      C1220   1.581       .  S
C1216      C1218   1.568       .  S
C1216      H1222   1.109       .  S
C1217      H1223   1.085       .  S
C1217      C1218   1.375       .  D
C1219      H1224   1.084       .  S
C1219      C1220   1.389       .  D
O1225      C1235   1.295       .  A
O1226      C1236   1.297       .  A
O1226     Ni1233   1.969       .  S
O1227      C1237   1.255       .  A
O1228      C1238   1.262       .  A
O1228     Ni1233   1.849       .  S
O1229      C1238   1.295       .  A
O1230      C1237   1.300       .  A
O1230     Ni1234   1.981   1_655  S
O1231      C1236   1.261       .  A
O1232      C1235   1.258       .  A
O1232     Ni1234   1.833   1_655  S
C1235      C1286   1.459       .  S
C1236      C1343   1.497       .  S
C1237      C1246   1.469       .  S
C1238      C1381   1.466       .  S
C1239      C1302   1.486       .  S
C1239      C1240   1.504       .  S
C1239      C1245   1.540       .  S
C1239      C1243   1.549       .  S
C1240      H1247   1.088       .  S
C1240      C1241   1.368       .  D
C1241      C1261   1.469       .  S
C1241      C1242   1.568       .  S
C1242      C1246   1.566       .  S
C1242      C1244   1.560       .  S
C1242      H1248   1.110       .  S
C1243      H1249   1.087       .  S
C1243      C1244   1.361       .  D
C1244      C1412   1.528       .  S
C1245      H1250   1.087       .  S
C1245      C1246   1.354       .  D
O1251      C1261   1.296       .  A
O1251     Ni1259   1.973       .  S
O1252      C1262   1.302       .  A
O1253      C1263   1.261       .  A
O1253     Ni1259   1.848       .  S
O1254      C1264   1.262       .  A
O1255      C1264   1.301       .  A
O1256      C1263   1.301       .  A
O1256     Ni1260   1.995       .  S
O1257      C1262   1.260       .  A
O1258      C1261   1.262       .  A
O1258     Ni1260   1.853       .  S
Ni1259    Ni1260   2.384       .  S
C1262      C1355   1.510       .  S
C1263      C1350   1.487       .  S
C1264      C1312   1.484       .  S
O1265      C1275   1.292       .  A
O1265     Ni1273   1.957       .  S
O1266      C1276   1.297       .  A
O1267      C1277   1.260       .  A
O1267     Ni1273   1.838       .  S
O1268      C1278   1.261       .  A
O1269      C1278   1.294       .  A
O1270      C1277   1.293       .  A
O1270     Ni1274   1.961       .  S
O1271      C1276   1.255       .  A
O1272      C1275   1.257       .  A
O1272     Ni1274   1.801       .  S
Ni1273    Ni1274   2.394       .  S
C1275      C1317   1.471       .  S
C1276      C1379   1.478       .  S
C1277      C1374   1.454       .  S
C1278      C1279   1.483       .  S
C1279      C1280   1.540       .  S
C1279      C1285   1.532       .  S
C1279      C1283   1.506       .  S
C1280      H1287   1.086       .  S
C1280      C1281   1.372       .  D
C1281      C1282   1.571       .  S
C1281      C1417   1.575       .  S
C1282      C1286   1.556       .  S
C1282      C1284   1.552       .  S
C1282      H1288   1.109       .  S
C1283      H1289   1.088       .  S
C1283      C1284   1.367       .  D
C1284      C1303   1.459       .  S
C1285      H1290   1.088       .  S
C1285      C1286   1.348       .  D
O1291      C1301   1.298       .  A
O1291     Ni1299   1.953   1_554  S
O1292      C1302   1.299       .  A
O1292     Ni1503   1.975       .  S
O1293      C1303   1.258       .  A
O1293     Ni1299   1.835   1_554  S
O1294      C1304   1.250       .  A
O1294     Ni1503   1.819       .  S
O1295      C1304   1.301       .  A
O1295     Ni1504   1.965       .  S
O1296      C1303   1.296       .  A
O1296     Ni1300   1.971       .  S
O1297      C1302   1.253       .  A
O1297     Ni1504   1.811       .  S
O1298      C1301   1.249       .  A
O1298     Ni1300   1.806       .  S
Ni1299     O1496   1.975       .  S
Ni1299     O1498   1.819       .  S
Ni1299    Ni1300   2.396   1_556  S
Ni1300     O1499   1.965   1_554  S
Ni1300     O1501   1.811   1_554  S
C1301      C1324   1.442       .  S
C1304      C1307   1.451       .  S
C1305      C1341   1.485       .  S
C1305      C1306   1.530       .  S
C1305      C1311   1.504       .  S
C1305      C1309   1.547       .  S
C1306      H1313   1.089       .  S
C1306      C1307   1.333       .  D
C1307      C1308   1.559       .  S
C1308      C1312   1.577       .  S
C1308      C1310   1.579       .  S
C1308      H1314   1.110       .  S
C1309      H1315   1.086       .  S
C1309      C1310   1.372       .  D
C1310      C1424   1.557       .  S
C1311      H1316   1.087       .  S
C1311      C1312   1.372       .  D
C1317      C1318   1.503       .  S
C1317      C1323   1.521       .  S
C1317      C1321   1.546       .  S
C1318      H1325   1.086       .  S
C1318      C1319   1.374       .  D
C1319      C1339   1.451       .  S
C1319      C1320   1.562       .  S
C1320      C1324   1.560       .  S
C1320      C1322   1.559       .  S
C1320      H1326   1.109       .  S
C1321      H1327   1.087       .  S
C1321      C1322   1.370       .  D
C1322      C1405   1.571       .  S
C1323      H1328   1.089       .  S
C1323      C1324   1.334       .  D
O1329      C1339   1.293       .  A
O1330      C1340   1.294       .  A
O1330     Ni1337   1.967       .  S
O1331      C1341   1.258       .  A
O1332      C1342   1.257       .  A
O1332     Ni1337   1.815       .  S
O1333      C1342   1.294       .  A
O1333     Ni1338   1.953       .  S
O1334      C1341   1.294       .  A
O1335      C1340   1.263       .  A
O1335     Ni1338   1.849       .  S
O1336      C1339   1.260       .  A
Ni1337    Ni1338   2.392       .  S
C1340      C1357   1.464       .  S
C1342      C1367   1.472       .  S
C1343      C1344   1.518       .  S
C1343      C1349   1.515       .  S
C1343      C1347   1.553       .  S
C1344      H1351   1.088       .  S
C1344      C1345   1.343       .  D
C1345      C1403   1.460       .  S
C1345      C1346   1.572       .  S
C1346      C1350   1.569       .  S
C1346      C1348   1.561       .  S
C1346      H1352   1.110       .  S
C1347      H1353   1.086       .  S
C1347      C1348   1.374       .  D
C1348      C1419   1.534       .  S
C1349      H1354   1.088       .  S
C1349      C1350   1.377       .  D
C1355      C1356   1.506       .  S
C1355      C1361   1.534       .  S
C1355      C1359   1.566       .  S
C1356      H1363   1.088       .  S
C1356      C1357   1.363       .  D
C1357      C1358   1.546       .  S
C1358      C1362   1.559       .  S
C1358      C1360   1.571       .  S
C1358      H1364   1.109       .  S
C1359      H1365   1.085   1_565  S
C1359      C1360   1.386       .  D
C1360      C1407   1.554       .  S
C1361      H1366   1.088       .  S
C1361      C1362   1.345       .  D
C1362      C1401   1.467       .  S
C1367      C1368   1.532       .  S
C1367      C1373   1.506       .  S
C1367      C1371   1.551       .  S
C1368      H1375   1.088       .  S
C1368      C1369   1.345       .  D
C1369      C1404   1.456       .  S
C1369      C1370   1.558       .  S
C1370      C1374   1.549       .  S
C1370      C1372   1.559       .  S
C1370      H1376   1.108       .  S
C1371      H1377   1.085       .  S
C1371      C1372   1.366       .  D
C1372      C1422   1.528       .  S
C1373      H1378   1.088       .  S
C1373      C1374   1.368       .  D
C1379      C1380   1.505       .  S
C1379      C1385   1.529       .  S
C1379      C1383   1.541       .  S
C1380      H1387   1.087       .  S
C1380      C1381   1.372       .  D
C1381      C1382   1.554       .  S
C1382      C1386   1.562       .  S
C1382      C1384   1.569       .  S
C1382      H1388   1.110       .  S
C1383      H1389   1.087       .  S
C1383      C1384   1.364       .  D
C1384      C1410   1.521       .  S
C1385      H1390   1.088       .  S
C1385      C1386   1.342       .  D
C1386      C1402   1.461       .  S
O1391      C1401   1.299       .  A
O1391     Ni1603   1.965       .  S
O1392      C1402   1.299       .  A
O1392     Ni1399   1.958       .  S
O1393      C1403   1.253       .  A
O1393     Ni1603   1.836       .  S
O1394      C1404   1.254       .  A
O1394     Ni1399   1.825       .  S
O1395      C1404   1.297       .  A
O1395     Ni1400   1.963       .  S
O1396      C1403   1.300       .  A
O1396     Ni1604   1.963       .  S
O1397      C1402   1.256       .  A
O1397     Ni1400   1.845       .  S
O1398      C1401   1.257       .  A
O1398     Ni1604   1.844       .  S
Ni1399     O1595   1.965   1_554  S
Ni1399     O1597   1.836   1_554  S
Ni1399    Ni1400   2.392       .  S
Ni1400     O1600   1.963   1_554  S
Ni1400     O1602   1.844   1_554  S
C1405      C1411   1.540   1_554  S
C1406      H1413   1.084       .  S
C1406      C1611   1.391   1_554  D
C1407      C1610   1.391       .  D
C1408      C1614   1.569       .  S
C1408      H1414   1.109       .  S
C1410      C1612   1.569   1_554  S
C1411      H1620   1.087       .  S
H1416      C1615   1.087       .  S
C1417      C1418   1.541       .  S
C1417      C1423   1.544       .  S
C1417      C1421   1.546       .  S
C1418      H1425   1.087       .  S
C1418      C1419   1.364       .  D
C1419      C1420   1.584       .  S
C1420      C1424   1.581       .  S
C1420      C1422   1.568       .  S
C1420      H1426   1.109       .  S
C1421      H1427   1.085       .  S
C1421      C1422   1.375       .  D
C1423      H1428   1.084       .  S
C1423      C1424   1.389       .  D
O1429      C1439   1.295       .  A
O1430      C1440   1.297       .  A
O1430     Ni1437   1.969       .  S
O1431      C1441   1.255       .  A
O1432      C1442   1.262       .  A
O1432     Ni1437   1.849       .  S
O1433      C1442   1.295       .  A
O1434      C1441   1.300       .  A
O1434     Ni1438   1.981   1_655  S
O1435      C1440   1.261       .  A
O1436      C1439   1.258       .  A
O1436     Ni1438   1.833   1_655  S
C1439      C1490   1.459       .  S
C1440      C1547   1.497       .  S
C1441      C1450   1.469       .  S
C1442      C1585   1.466       .  S
C1443      C1506   1.486       .  S
C1443      C1444   1.504       .  S
C1443      C1449   1.540       .  S
C1443      C1447   1.549       .  S
C1444      H1451   1.088       .  S
C1444      C1445   1.368       .  D
C1445      C1465   1.469       .  S
C1445      C1446   1.568       .  S
C1446      C1450   1.566       .  S
C1446      C1448   1.560       .  S
C1446      H1452   1.110       .  S
C1447      H1453   1.087   1_556  S
C1447      C1448   1.361       .  D
C1448      C1616   1.528       .  S
C1449      H1454   1.087       .  S
C1449      C1450   1.354       .  D
O1455      C1465   1.296       .  A
O1455     Ni1463   1.973       .  S
O1456      C1466   1.302       .  A
O1457      C1467   1.261       .  A
O1457     Ni1463   1.848       .  S
O1458      C1468   1.262       .  A
O1459      C1468   1.301       .  A
O1460      C1467   1.301       .  A
O1460     Ni1464   1.995       .  S
O1461      C1466   1.260       .  A
O1462      C1465   1.262       .  A
O1462     Ni1464   1.853       .  S
Ni1463    Ni1464   2.384       .  S
C1466      C1559   1.510       .  S
C1467      C1554   1.487       .  S
C1468      C1516   1.484       .  S
O1469      C1479   1.292       .  A
O1469     Ni1477   1.957       .  S
O1470      C1480   1.297       .  A
O1471      C1481   1.260       .  A
O1471     Ni1477   1.838       .  S
O1472      C1482   1.261       .  A
O1473      C1482   1.294       .  A
O1474      C1481   1.293       .  A
O1474     Ni1478   1.961       .  S
O1475      C1480   1.255       .  A
O1476      C1479   1.257       .  A
O1476     Ni1478   1.801       .  S
Ni1477    Ni1478   2.394       .  S
C1479      C1521   1.471       .  S
C1480      C1583   1.478       .  S
C1481      C1578   1.454       .  S
C1482      C1483   1.483       .  S
C1483      C1484   1.540       .  S
C1483      C1489   1.532       .  S
C1483      C1487   1.506       .  S
C1484      H1491   1.086       .  S
C1484      C1485   1.372       .  D
C1485      C1486   1.571       .  S
C1485      C1621   1.575       .  S
C1486      C1490   1.556       .  S
C1486      C1488   1.552       .  S
C1486      H1492   1.109       .  S
C1487      H1493   1.088       .  S
C1487      C1488   1.367       .  D
C1488      C1507   1.459       .  S
C1489      H1494   1.088       .  S
C1489      C1490   1.348       .  D
O1495      C1505   1.298       .  A
O1495     Ni1503   1.953       .  S
O1496      C1506   1.299       .  A
O1497      C1507   1.258       .  A
O1497     Ni1503   1.835       .  S
O1498      C1508   1.250       .  A
O1499      C1508   1.301       .  A
O1500      C1507   1.296       .  A
O1500     Ni1504   1.971       .  S
O1501      C1506   1.253       .  A
O1502      C1505   1.249       .  A
O1502     Ni1504   1.806       .  S
Ni1503    Ni1504   2.396       .  S
C1505      C1528   1.442       .  S
C1508      C1511   1.451       .  S
C1509      C1545   1.485       .  S
C1509      C1510   1.530       .  S
C1509      C1515   1.504       .  S
C1509      C1513   1.547       .  S
C1510      H1517   1.089       .  S
C1510      C1511   1.333       .  D
C1511      C1512   1.559       .  S
C1512      C1516   1.577       .  S
C1512      C1514   1.579       .  S
C1512      H1518   1.110       .  S
C1513      H1519   1.086       .  S
C1513      C1514   1.372       .  D
C1514      C1628   1.557       .  S
C1515      H1520   1.087       .  S
C1515      C1516   1.372       .  D
C1521      C1522   1.503       .  S
C1521      C1527   1.521       .  S
C1521      C1525   1.546       .  S
C1522      H1529   1.086       .  S
C1522      C1523   1.374       .  D
C1523      C1543   1.451       .  S
C1523      C1524   1.562       .  S
C1524      C1528   1.560       .  S
C1524      C1526   1.559       .  S
C1524      H1530   1.109       .  S
C1525      H1531   1.087       .  S
C1525      C1526   1.370       .  D
C1526      C1609   1.571       .  S
C1527      H1532   1.089       .  S
C1527      C1528   1.334       .  D
O1533      C1543   1.293       .  A
O1534      C1544   1.294       .  A
O1534     Ni1541   1.967       .  S
O1535      C1545   1.258       .  A
O1536      C1546   1.257       .  A
O1536     Ni1541   1.815       .  S
O1537      C1546   1.294       .  A
O1537     Ni1542   1.953       .  S
O1538      C1545   1.294       .  A
O1539      C1544   1.263       .  A
O1539     Ni1542   1.849       .  S
O1540      C1543   1.260       .  A
Ni1541    Ni1542   2.392       .  S
C1544      C1561   1.464       .  S
C1546      C1571   1.472       .  S
C1547      C1548   1.518       .  S
C1547      C1553   1.515       .  S
C1547      C1551   1.553       .  S
C1548      H1555   1.088       .  S
C1548      C1549   1.343       .  D
C1549      C1607   1.460       .  S
C1549      C1550   1.572       .  S
C1550      C1554   1.569       .  S
C1550      C1552   1.561       .  S
C1550      H1556   1.110       .  S
C1551      H1557   1.086       .  S
C1551      C1552   1.374       .  D
C1552      C1623   1.534       .  S
C1553      H1558   1.088       .  S
C1553      C1554   1.377       .  D
C1559      C1560   1.506       .  S
C1559      C1565   1.534       .  S
C1559      C1563   1.566       .  S
C1560      H1567   1.088       .  S
C1560      C1561   1.363       .  D
C1561      C1562   1.546       .  S
C1562      C1566   1.559       .  S
C1562      C1564   1.571       .  S
C1562      H1568   1.109       .  S
C1563      H1569   1.085   1_565  S
C1563      C1564   1.386       .  D
C1564      C1611   1.554       .  S
C1565      H1570   1.088       .  S
C1565      C1566   1.345       .  D
C1566      C1605   1.467       .  S
C1571      C1572   1.532       .  S
C1571      C1577   1.506       .  S
C1571      C1575   1.551       .  S
C1572      H1579   1.088       .  S
C1572      C1573   1.345       .  D
C1573      C1608   1.456       .  S
C1573      C1574   1.558       .  S
C1574      C1578   1.549       .  S
C1574      C1576   1.559       .  S
C1574      H1580   1.108       .  S
C1575      H1581   1.085       .  S
C1575      C1576   1.366       .  D
C1576      C1626   1.528       .  S
C1577      H1582   1.088       .  S
C1577      C1578   1.368       .  D
C1583      C1584   1.505       .  S
C1583      C1589   1.529       .  S
C1583      C1587   1.541       .  S
C1584      H1591   1.087       .  S
C1584      C1585   1.372       .  D
C1585      C1586   1.554       .  S
C1586      C1590   1.562       .  S
C1586      C1588   1.569       .  S
C1586      H1592   1.110       .  S
C1587      H1593   1.087       .  S
C1587      C1588   1.364       .  D
C1588      C1614   1.521       .  S
C1589      H1594   1.088       .  S
C1589      C1590   1.342       .  D
C1590      C1606   1.461       .  S
O1595      C1605   1.299       .  A
O1596      C1606   1.299       .  A
O1596     Ni1603   1.958       .  S
O1597      C1607   1.253       .  A
O1598      C1608   1.254       .  A
O1598     Ni1603   1.825       .  S
O1599      C1608   1.297       .  A
O1599     Ni1604   1.963       .  S
O1600      C1607   1.300       .  A
O1601      C1606   1.256       .  A
O1601     Ni1604   1.845       .  S
O1602      C1605   1.257       .  A
Ni1603    Ni1604   2.392       .  S
C1609      C1615   1.540       .  S
C1610      H1617   1.084       .  S
C1612      H1618   1.109       .  S
C1621      C1622   1.541       .  S
C1621      C1627   1.544       .  S
C1621      C1625   1.546       .  S
C1622      H1629   1.087       .  S
C1622      C1623   1.364       .  D
C1623      C1624   1.584       .  S
C1624      C1628   1.581       .  S
C1624      C1626   1.568       .  S
C1624      H1630   1.109       .  S
C1625      H1631   1.085       .  S
C1625      C1626   1.375       .  D
C1627      H1632   1.084       .  S
C1627      C1628   1.389       .  D
