geometry optimzed in LAMMPS
_audit_creation_date              2020-12-01 
_audit_creation_method            'lammps2cif' 
_symmetry_space_group_name_H-M    'P1' 
_symmetry_Int_Tables_number       1 
_symmetry_cell_setting            triclinic 
loop_ 
_symmetry_equiv_pos_as_xyz 
  x,y,z 
_cell_length_a                    30.29131948 
_cell_length_b                    30.081065052920028 
_cell_length_c                    46.891851952562234 
_cell_angle_alpha                 90.08231119722362 
_cell_angle_beta                  89.76500687290856 
_cell_angle_gamma                 90.28248944989288 
loop_ 
_atom_site_label 
_atom_site_type_symbol 
_atom_site_fract_x 
_atom_site_fract_y 
_atom_site_fract_z 
_atom_site_charge 
In1        In  0.33062119  0.00510691  0.12276390     1.36900
C2          C  0.27075201  0.94488514  0.10632570     0.78200
O3          O  0.28832980  0.03184158  0.15814611    -0.60300
O4          O  0.29787917  0.07216306  0.12164821    -0.51200
C5          C  0.39162452  0.99547758  0.16326565     0.70800
O6          O  0.36034973  0.96817486  0.15978924    -0.46100
C7          C  0.38147803  0.01184823  0.07637852     0.75500
O8          O  0.30250432  0.93577186  0.12259475    -0.57900
O9          O  0.36351284  0.04513368  0.08790272    -0.48000
O10         O  0.26951391  0.98501223  0.09863788    -0.54300
C11         C  0.28002378  0.06804383  0.14588720     0.85700
O12         O  0.39172632  0.02709128  0.14567589    -0.56200
O13         O  0.37280218  0.97538507  0.08840739    -0.59500
In14       In  0.66151379  0.99523153  0.37218261     1.36900
C15         C  0.71908851  0.05612871  0.35387125     0.78200
O16         O  0.71623972  0.97452013  0.40115772    -0.60300
O17         O  0.68717965  0.92503423  0.37502426    -0.51200
C18         C  0.60367489  0.00309587  0.41466976     0.70800
O19         O  0.62493854  0.03587996  0.40482916    -0.46100
C20         C  0.60713215  0.98750619  0.32782975     0.75500
O21         O  0.69534869  0.06185323  0.37572605    -0.57900
O22         O  0.63739378  0.95990141  0.33268644    -0.48000
O23         O  0.71281624  0.01949810  0.34141218    -0.54300
C24         C  0.71557801  0.93420890  0.39379505     0.85700
O25         O  0.61250901  0.96644227  0.40297304    -0.56200
O26         O  0.60512952  0.01908932  0.34543923    -0.59500
In27       In  0.99247528  0.66442695  0.00480568     1.36900
C28         C  0.93529847  0.72120236  0.48194838     0.78200
O29         O  0.01362498  0.71343704  0.03841625    -0.60300
O30         O  0.05923335  0.69755289  0.50565958    -0.51200
C31         C  0.97683464  0.60328353  0.04456601     0.70800
O32         O  0.94713532  0.62873573  0.03540724    -0.46100
C33         C  0.00249620  0.60572458  0.46279186     0.75500
O34         O  0.92796523  0.70065941  0.00493685    -0.57900
O35         O  0.03441180  0.62843667  0.47230793    -0.48000
O36         O  0.97260484  0.71340552  0.47103200    -0.54300
C37         C  0.05148676  0.71993282  0.02789727     0.85700
O38         O  0.01465370  0.61114060  0.03438808    -0.56200
O39         O  0.96597772  0.61413633  0.47445099    -0.59500
In40       In  0.99714246  0.33576557  0.25153821     1.36900
C41         C  0.06268619  0.28807005  0.22897135     0.78200
O42         O  0.98108138  0.27663974  0.27912605    -0.60300
O43         O  0.92970451  0.30604176  0.25536172    -0.51200
C44         C  0.00159251  0.39179897  0.29575673     0.70800
O45         O  0.03244612  0.36571824  0.28909692    -0.46100
C46         C  0.98101825  0.38759975  0.20713527     0.75500
O47         O  0.06887956  0.31680941  0.24821982    -0.57900
O48         O  0.95515881  0.35686523  0.21474431    -0.48000
O49         O  0.02296843  0.28387945  0.22151856    -0.54300
C50         C  0.94067136  0.27622327  0.27272718     0.85700
O51         O  0.96874060  0.38934637  0.27947976    -0.56200
O52         O  0.01505468  0.39140236  0.22233597    -0.59500
C53         C  0.99129358  0.49552310  0.08601511    -0.04900
C54         C  0.96006430  0.50081345  0.10809361     0.09300
C55         C  0.93063420  0.53693400  0.10748510    -0.02300
C56         C  0.93473287  0.56980027  0.08619078    -0.00500
C57         C  0.96847682  0.56653331  0.06524881    -0.04200
C58         C  0.99520520  0.52795440  0.06450108     0.02900
C59         C  0.96235667  0.47200871  0.13394598     0.09700
C60         C  0.89740340  0.54115768  0.12971251     0.35600
C61         C  0.02667207  0.52116306  0.04144457     0.39000
C62         C  0.98341357  0.48856030  0.15855954    -0.04500
C63         C  0.98770284  0.46159791  0.18283613     0.02600
C64         C  0.97249494  0.41703959  0.18235230    -0.04100
C65         C  0.95036469  0.40078441  0.15783556    -0.00300
C66         C  0.94487746  0.42848052  0.13383994    -0.02900
C67         C  0.00121813  0.53347696  0.15873455     0.36300
C68         C  0.93457962  0.35517893  0.15671572     0.40000
C69         C  0.00680131  0.48041841  0.20854912     0.39100
C70         C  0.92141282  0.41222312  0.10898988     0.36000
C71         C  0.02065965  0.45754163  0.08613198     0.36700
C72         C  0.90538634  0.60770704  0.08685422     0.39900
N73         N  0.02187920  0.49544087  0.22906837    -0.38100
N74         N  0.01530053  0.56929211  0.15878077    -0.39700
N75         N  0.92202992  0.31879806  0.15581821    -0.37500
N76         N  0.90251935  0.39913149  0.08926311    -0.39800
N77         N  0.87117580  0.54438846  0.14758378    -0.39600
N78         N  0.88169248  0.63778553  0.08752471    -0.37200
N79         N  0.05161216  0.51595740  0.02301900    -0.38300
N80         N  0.04407044  0.42725507  0.08620923    -0.40000
C81         C  0.03111878  0.43993918  0.36870388    -0.04900
C82         C  0.00792690  0.48038858  0.36850059     0.09300
C83         C  0.98225772  0.49184463  0.34464025    -0.02300
C84         C  0.98059116  0.46346210  0.32068282    -0.00500
C85         C  0.00358279  0.42243565  0.32081851    -0.04200
C86         C  0.02817901  0.41059238  0.34530948     0.02900
C87         C  0.00941594  0.51066017  0.39378005     0.09700
C88         C  0.95723681  0.53291592  0.34497708     0.35600
C89         C  0.04881708  0.36726907  0.34726523     0.39000
C90         C  0.03726422  0.54834265  0.39364601    -0.04500
C91         C  0.03660610  0.57847100  0.41673936     0.02600
C92         C  0.00680072  0.57186613  0.43972576    -0.04100
C93         C  0.97947013  0.53339802  0.43994564    -0.00300
C94         C  0.98141628  0.50264073  0.41728583    -0.02900
C95         C  0.06576942  0.55661897  0.36925932     0.36300
C96         C  0.94905560  0.52514532  0.46339198     0.40000
C97         C  0.06527047  0.61722827  0.41600588     0.39100
C98         C  0.95415581  0.46281819  0.41790930     0.36000
C99         C  0.05798560  0.42850992  0.39313933     0.36700
C100        C  0.95585232  0.47734229  0.29582443     0.39900
N101        N  0.08829702  0.64802337  0.41533725    -0.38100
N102        N  0.08818129  0.56328899  0.34967809    -0.39700
N103        N  0.92442275  0.51867573  0.48187187    -0.37500
N104        N  0.93273235  0.43087452  0.41846018    -0.39800
N105        N  0.93730124  0.56561765  0.34549035    -0.39600
N106        N  0.93604891  0.48878611  0.27611804    -0.37200
N107        N  0.06497445  0.33261260  0.34898001    -0.38300
N108        N  0.07955886  0.41939648  0.41255761    -0.40000
C109        C  0.78756464  0.87322721  0.44749259    -0.04900
C110        C  0.80653843  0.83974361  0.43041825     0.09300
C111        C  0.79498006  0.83645840  0.40136590    -0.02300
C112        C  0.76482053  0.86681649  0.38936335    -0.00500
C113        C  0.74580271  0.90061888  0.40645238    -0.04200
C114        C  0.75696226  0.90316413  0.43572626     0.02900
C115        C  0.83966439  0.80869284  0.44305680     0.09700
C116        C  0.81507040  0.80242905  0.38370065     0.35600
C117        C  0.73631973  0.93599413  0.45407401     0.39000
C118        C  0.82561787  0.76944291  0.45682761    -0.04500
C119        C  0.85666578  0.74131366  0.46997028     0.02600
C120        C  0.90239561  0.75150847  0.46863280    -0.04100
C121        C  0.91632277  0.79079661  0.45449848    -0.00300
C122        C  0.88495849  0.81964063  0.44234628    -0.02900
C123        C  0.77897841  0.75830240  0.45767559     0.36300
C124        C  0.96275756  0.80275142  0.45332399     0.40000
C125        C  0.84126755  0.70160971  0.48457431     0.39100
C126        C  0.89899908  0.86158638  0.42995612     0.36000
C127        C  0.80050259  0.87747601  0.47713193     0.36700
C128        C  0.75504737  0.86435391  0.35913285     0.39900
N129        N  0.82898623  0.67016289  0.49644205    -0.38100
N130        N  0.74178214  0.74941554  0.45832478    -0.39700
N131        N  0.99972933  0.81248114  0.45224631    -0.37500
N132        N  0.90991950  0.89533856  0.42038512    -0.39800
N133        N  0.83123930  0.77537228  0.36959747    -0.39600
N134        N  0.74735215  0.86249347  0.33500797    -0.37200
N135        N  0.71980043  0.96214582  0.46870297    -0.38300
N136        N  0.81117767  0.88100618  0.00069088    -0.40000
C137        C  0.77252842  0.16651095  0.33256994    -0.04900
C138        C  0.81242030  0.15184743  0.32020182     0.09300
C139        C  0.82256967  0.10616216  0.32012002    -0.02300
C140        C  0.79261100  0.07509239  0.33180869    -0.00500
C141        C  0.75188926  0.08945182  0.34345502    -0.04200
C142        C  0.74249752  0.13550661  0.34440199     0.02900
C143        C  0.84477921  0.18455755  0.30812069     0.09700
C144        C  0.86417328  0.09121869  0.30811087     0.35600
C145        C  0.70171654  0.15118138  0.35715873     0.39000
C146        C  0.88051764  0.19940239  0.32483831    -0.04500
C147        C  0.91205489  0.22907819  0.31332841     0.02600
C148        C  0.90830640  0.24379268  0.28475947    -0.04100
C149        C  0.87249841  0.22845137  0.26797172    -0.00300
C150        C  0.84060953  0.19942982  0.27977245    -0.02900
C151        C  0.88439604  0.18425847  0.35408071     0.36300
C152        C  0.86909560  0.24122877  0.23821385     0.40000
C153        C  0.94736083  0.24557303  0.33136656     0.39100
C154        C  0.80333283  0.18483283  0.26276343     0.36000
C155        C  0.76239065  0.21358880  0.33302607     0.36700
C156        C  0.80477352  0.02851897  0.33303956     0.39900
N157        N  0.97543054  0.25879919  0.34578081    -0.38100
N158        N  0.88717022  0.17194293  0.37736557    -0.39700
N159        N  0.86662777  0.25142577  0.21448519    -0.37500
N160        N  0.77346276  0.17347316  0.24924521    -0.39800
N161        N  0.89741881  0.07941990  0.29859516    -0.39600
N162        N  0.81446351  0.99140325  0.33424974    -0.37200
N163        N  0.66934437  0.16368941  0.36753500    -0.38300
N164        N  0.75414489  0.25110623  0.33335892    -0.40000
C165        C  0.53920036  0.98104795  0.48310570    -0.04900
C166        C  0.50609687  0.01386456  0.48172048     0.09300
C167        C  0.50517729  0.04327197  0.45828296    -0.02300
C168        C  0.53769614  0.04044934  0.43669023    -0.00500
C169        C  0.57047619  0.00720012  0.43790804    -0.04200
C170        C  0.57051283  0.97694517  0.46094434     0.02900
C171        C  0.47154182  0.01617671  0.00466277     0.09700
C172        C  0.46997486  0.07553712  0.45593303     0.35600
C173        C  0.60255358  0.94127540  0.46183831     0.39000
C174        C  0.47405310  0.04898648  0.02615777    -0.04500
C175        C  0.44386893  0.04848147  0.04921833     0.02600
C176        C  0.41100608  0.01494209  0.05098097    -0.04100
C177        C  0.40779497  0.98292636  0.02894481    -0.00300
C178        C  0.43777422  0.98371584  0.00585369    -0.02900
C179        C  0.50867868  0.08243579  0.02496923     0.36300
C180        C  0.37329826  0.94927645  0.02981752     0.40000
C181        C  0.44836975  0.08102209  0.07190865     0.39100
C182        C  0.43427928  0.95069919  0.48337656     0.36000
C183        C  0.54097079  0.95138484  0.00745339     0.36700
C184        C  0.53582203  0.07010294  0.41233648     0.39900
N185        N  0.45206207  0.10688741  0.09004994    -0.38100
N186        N  0.53628085  0.10912162  0.02395677    -0.39700
N187        N  0.34580175  0.92246051  0.03061256    -0.37500
N188        N  0.43158034  0.92431064  0.46548312    -0.39800
N189        N  0.44186731  0.10121980  0.45381188    -0.39600
N190        N  0.53435675  0.09347354  0.39278717    -0.37200
N191        N  0.62761072  0.91237638  0.46233585    -0.38300
N192        N  0.54238117  0.92780205  0.02689153    -0.40000
C193        C  0.46824367  0.94587088  0.21949521    -0.04900
C194        C  0.48621666  0.98454229  0.23198374     0.09300
C195        C  0.47429420  0.02663306  0.22140870    -0.02300
C196        C  0.44339471  0.03023292  0.19911449    -0.00500
C197        C  0.42501545  0.99149386  0.18649165    -0.04200
C198        C  0.43831519  0.94920409  0.19656003     0.02900
C199        C  0.51709042  0.98137320  0.25677961     0.09700
C200        C  0.49384261  0.06639968  0.23367900     0.35600
C201        C  0.42244447  0.90894613  0.18286033     0.39000
C202        C  0.56276940  0.97548521  0.25222731    -0.04500
C203        C  0.59218514  0.97609940  0.27552104     0.02600
C204        C  0.57611050  0.98340938  0.30347948    -0.04100
C205        C  0.53015578  0.98773785  0.30808242    -0.00300
C206        C  0.50075922  0.98624300  0.28482932    -0.02900
C207        C  0.57946302  0.96936386  0.22346583     0.36300
C208        C  0.51295382  0.99235546  0.33687022     0.40000
C209        C  0.63916016  0.97073762  0.27056339     0.39100
C210        C  0.45353820  0.98927765  0.28968435     0.36000
C211        C  0.48039373  0.90261403  0.23051267     0.36700
C212        C  0.42935824  0.07409548  0.19012005     0.39900
N213        N  0.67663666  0.96633351  0.26668945    -0.38100
N214        N  0.59271746  0.96437922  0.20051390    -0.39700
N215        N  0.49934846  0.99581710  0.35985892    -0.37500
N216        N  0.41583513  0.99133493  0.29348174    -0.39800
N217        N  0.50958194  0.09806816  0.24340365    -0.39600
N218        N  0.41802813  0.10903915  0.18300951    -0.37200
N219        N  0.41003451  0.87678846  0.17186127    -0.38300
N220        N  0.49005932  0.86817989  0.23942390    -0.40000
C221        C  0.13954952  0.81068509  0.03415096    -0.04900
C222        C  0.14419363  0.81438973  0.06396549     0.09300
C223        C  0.11852296  0.78707731  0.08204472    -0.02300
C224        C  0.08822057  0.75622074  0.07037792    -0.00500
C225        C  0.08392260  0.75191955  0.04040048    -0.04200
C226        C  0.11011425  0.77919294  0.02237333     0.02900
C227        C  0.17629394  0.84726973  0.07621224     0.09700
C228        C  0.12343403  0.79087646  0.11271500     0.35600
C229        C  0.10598086  0.77602106  0.49161737     0.39000
C230        C  0.16209554  0.89017705  0.08404536    -0.04500
C231        C  0.19265617  0.92181414  0.09446224     0.02600
C232        C  0.23798373  0.91099401  0.09661073    -0.04100
C233        C  0.25201711  0.86775977  0.08889296    -0.00300
C234        C  0.22120251  0.83596774  0.07902684    -0.02900
C235        C  0.11592107  0.90181969  0.08105369     0.36300
C236        C  0.29851048  0.85642910  0.08980503     0.40000
C237        C  0.17704407  0.96506521  0.10365933     0.39100
C238        C  0.23569725  0.79158292  0.07147086     0.36000
C239        C  0.16447690  0.84019165  0.01559252     0.36700
C240        C  0.06243563  0.72811162  0.08934910     0.39900
N241        N  0.16437751  0.99945641  0.11105308    -0.38100
N242        N  0.07910227  0.91100972  0.07857780    -0.39700
N243        N  0.33562792  0.84760216  0.09043946    -0.37500
N244        N  0.24722585  0.75613446  0.06550820    -0.39800
N245        N  0.12746939  0.79404538  0.13716038    -0.39600
N246        N  0.04186080  0.70576184  0.10450857    -0.37200
N247        N  0.10287762  0.77341011  0.46708355    -0.38300
N248        N  0.18412089  0.86398427  0.00084310    -0.40000
C249        C  0.23359631  0.18109979  0.16758221    -0.04900
C250        C  0.19459019  0.16838590  0.18206480     0.09300
C251        C  0.18438910  0.12294710  0.18537948    -0.02300
C252        C  0.21253895  0.09012847  0.17403090    -0.00500
C253        C  0.25114638  0.10271183  0.15876985    -0.04200
C254        C  0.26162760  0.14836255  0.15588298     0.02900
C255        C  0.16360976  0.20278994  0.19347410     0.09700
C256        C  0.14420387  0.10988309  0.20034866     0.35600
C257        C  0.30225527  0.16197767  0.14165572     0.39000
C258        C  0.13098857  0.22089254  0.17566998    -0.04500
C259        C  0.09815819  0.24896889  0.18710065     0.02600
C260        C  0.09887406  0.26070219  0.21643215    -0.04100
C261        C  0.13319336  0.24432697  0.23386553    -0.00300
C262        C  0.16487110  0.21480715  0.22255671    -0.02900
C263        C  0.13078427  0.20975040  0.14549714     0.36300
C264        C  0.13469954  0.25567215  0.26399243     0.40000
C265        C  0.06359248  0.26529238  0.16864510     0.39100
C266        C  0.19783812  0.19529192  0.24094876     0.36000
C267        C  0.24478350  0.22774846  0.16495320     0.36700
C268        C  0.20099758  0.04364826  0.17739606     0.39900
N269        N  0.03572944  0.27784411  0.15385060    -0.38100
N270        N  0.13095802  0.20098080  0.12150910    -0.39700
N271        N  0.13586079  0.26471533  0.28791217    -0.37500
N272        N  0.22399179  0.17921091  0.25559179    -0.39800
N273        N  0.11233946  0.09967246  0.21222151    -0.39600
N274        N  0.19178643  0.00641415  0.18021278    -0.37200
N275        N  0.33450327  0.17279250  0.13044487    -0.38300
N276        N  0.25384700  0.26512853  0.16286893    -0.40000
In277      In  0.33062119  0.00510688  0.62276392     1.36900
C278        C  0.27075207  0.94488513  0.60632572     0.78200
O279        O  0.28832979  0.03184154  0.65814612    -0.60300
O280        O  0.29787917  0.07216302  0.62164822    -0.51200
C281        C  0.39162451  0.99547747  0.66326565     0.70800
O282        O  0.36034973  0.96817477  0.65978923    -0.46100
C283        C  0.38147796  0.01184825  0.57637852     0.75500
O284        O  0.30250427  0.93577185  0.62259481    -0.57900
O285        O  0.36351285  0.04513368  0.58790274    -0.48000
O286        O  0.26951400  0.98501220  0.59863784    -0.54300
C287        C  0.28002379  0.06804384  0.64588716     0.85700
O288        O  0.39172632  0.02709120  0.64567589    -0.56200
O289        O  0.37280203  0.97538505  0.58840737    -0.59500
In290      In  0.66151381  0.99523164  0.87218259     1.36900
C291        C  0.71908857  0.05612880  0.85387122     0.78200
O292        O  0.71623982  0.97452030  0.90115762    -0.60300
O293        O  0.68717954  0.92503430  0.87502433    -0.51200
C294        C  0.60367489  0.00309598  0.91466974     0.70800
O295        O  0.62493857  0.03588001  0.90482915    -0.46100
C296        C  0.60713226  0.98750624  0.82782971     0.75500
O297        O  0.69534877  0.06185332  0.87572604    -0.57900
O298        O  0.63739389  0.95990153  0.83268641    -0.48000
O299        O  0.71281625  0.01949818  0.84141214    -0.54300
C300        C  0.71557803  0.93420902  0.89379507     0.85700
O301        O  0.61250895  0.96644232  0.90297300    -0.56200
O302        O  0.60512958  0.01908943  0.84543918    -0.59500
In303      In  0.99247521  0.66442696  0.50480580     1.36900
C304        C  0.93529849  0.72120239  0.98194833     0.78200
O305        O  0.01362486  0.71343707  0.53841638    -0.60300
O306        O  0.05923339  0.69755291  0.00565939    -0.51200
C307        C  0.97683466  0.60328356  0.54456613     0.70800
O308        O  0.94713515  0.62873590  0.53540741    -0.46100
C309        C  0.00249620  0.60572468  0.96279173     0.75500
O310        O  0.92796521  0.70065946  0.50493688    -0.57900
O311        O  0.03441191  0.62843663  0.97230786    -0.48000
O312        O  0.97260479  0.71340559  0.97103195    -0.54300
C313        C  0.05148670  0.71993283  0.52789738     0.85700
O314        O  0.01465350  0.61114063  0.53438820    -0.56200
O315        O  0.96597775  0.61413657  0.97445074    -0.59500
In316      In  0.99714252  0.33576552  0.75153821     1.36900
C317        C  0.06268621  0.28807000  0.72897130     0.78200
O318        O  0.98108138  0.27663977  0.77912610    -0.60300
O319        O  0.92970459  0.30604158  0.75536160    -0.51200
C320        C  0.00159253  0.39179892  0.79575671     0.70800
O321        O  0.03244617  0.36571820  0.78909693    -0.46100
C322        C  0.98101830  0.38759977  0.70713532     0.75500
O323        O  0.06887959  0.31680931  0.74821976    -0.57900
O324        O  0.95515870  0.35686536  0.71474443    -0.48000
O325        O  0.02296839  0.28387940  0.72151851    -0.54300
C326        C  0.94067153  0.27622317  0.77272719     0.85700
O327        O  0.96874066  0.38934632  0.77947973    -0.56200
O328        O  0.01505483  0.39140217  0.72233589    -0.59500
C329        C  0.99129335  0.49552326  0.58601524    -0.04900
C330        C  0.96006427  0.50081350  0.60809372     0.09300
C331        C  0.93063405  0.53693416  0.60748525    -0.02300
C332        C  0.93473287  0.56980019  0.58619089    -0.00500
C333        C  0.96847654  0.56653347  0.56524896    -0.04200
C334        C  0.99520516  0.52795439  0.56450113     0.02900
C335        C  0.96235666  0.47200890  0.63394614     0.09700
C336        C  0.89740340  0.54115781  0.62971271     0.35600
C337        C  0.02667172  0.52116312  0.54144474     0.39000
C338        C  0.98341362  0.48856023  0.65855961    -0.04500
C339        C  0.98770296  0.46159796  0.68283621     0.02600
C340        C  0.97249488  0.41703954  0.68235234    -0.04100
C341        C  0.95036465  0.40078473  0.65783571    -0.00300
C342        C  0.94487720  0.42848053  0.63383997    -0.02900
C343        C  0.00121844  0.53347711  0.65873463     0.36300
C344        C  0.93457919  0.35517860  0.65671582     0.40000
C345        C  0.00680148  0.48041835  0.70854918     0.39100
C346        C  0.92141276  0.41222347  0.60899022     0.36000
C347        C  0.02065953  0.45754152  0.58613201     0.36700
C348        C  0.90538591  0.60770740  0.58685436     0.39900
N349        N  0.02187948  0.49544077  0.72906840    -0.38100
N350        N  0.01530087  0.56929194  0.65878084    -0.39700
N351        N  0.92202966  0.31879857  0.65581834    -0.37500
N352        N  0.90251881  0.39913170  0.58926315    -0.39800
N353        N  0.87117592  0.54438862  0.64758401    -0.39600
N354        N  0.88169239  0.63778535  0.58752482    -0.37200
N355        N  0.05161197  0.51595742  0.52301896    -0.38300
N356        N  0.04407010  0.42725514  0.58620916    -0.40000
C357        C  0.03111863  0.43993899  0.86870391    -0.04900
C358        C  0.00792681  0.48038852  0.86850053     0.09300
C359        C  0.98225789  0.49184455  0.84464016    -0.02300
C360        C  0.98059119  0.46346212  0.82068273    -0.00500
C361        C  0.00358277  0.42243554  0.82081850    -0.04200
C362        C  0.02817876  0.41059234  0.84530949     0.02900
C363        C  0.00941593  0.51066019  0.89378002     0.09700
C364        C  0.95723705  0.53291626  0.84497689     0.35600
C365        C  0.04881687  0.36726862  0.84726530     0.39000
C366        C  0.03726436  0.54834255  0.89364587    -0.04500
C367        C  0.03660612  0.57847088  0.91673930     0.02600
C368        C  0.00680081  0.57186620  0.93972560    -0.04100
C369        C  0.97947004  0.53339823  0.93994558    -0.00300
C370        C  0.98141609  0.50264061  0.91728572    -0.02900
C371        C  0.06576943  0.55661866  0.86925941     0.36300
C372        C  0.94905554  0.52514566  0.96339172     0.40000
C373        C  0.06527088  0.61722829  0.91600579     0.39100
C374        C  0.95415598  0.46281887  0.91790922     0.36000
C375        C  0.05798530  0.42850974  0.89313938     0.36700
C376        C  0.95585253  0.47734225  0.79582435     0.39900
N377        N  0.08829729  0.64802299  0.91533717    -0.38100
N378        N  0.08818154  0.56328871  0.84967795    -0.39700
N379        N  0.92442242  0.51867621  0.98187176    -0.37500
N380        N  0.93273190  0.43087437  0.91846009    -0.39800
N381        N  0.93730189  0.56561781  0.84549006    -0.39600
N382        N  0.93604918  0.48878614  0.77611786    -0.37200
N383        N  0.06497401  0.33261257  0.84898010    -0.38300
N384        N  0.07955849  0.41939638  0.91255774    -0.40000
C385        C  0.78756456  0.87322745  0.94749269    -0.04900
C386        C  0.80653831  0.83974365  0.93041837     0.09300
C387        C  0.79497980  0.83645844  0.90136607    -0.02300
C388        C  0.76482037  0.86681641  0.88936349    -0.00500
C389        C  0.74580264  0.90061905  0.90645245    -0.04200
C390        C  0.75696236  0.90316424  0.93572625     0.02900
C391        C  0.83966431  0.80869298  0.94305692     0.09700
C392        C  0.81507021  0.80242881  0.88370077     0.35600
C393        C  0.73631975  0.93599478  0.95407413     0.39000
C394        C  0.82561771  0.76944301  0.95682774    -0.04500
C395        C  0.85666571  0.74131365  0.96997036     0.02600
C396        C  0.90239544  0.75150847  0.96863280    -0.04100
C397        C  0.91632296  0.79079667  0.95449838    -0.00300
C398        C  0.88495827  0.81964050  0.94234627    -0.02900
C399        C  0.77897826  0.75830255  0.95767580     0.36300
C400        C  0.96275690  0.80275117  0.95332380     0.40000
C401        C  0.84126754  0.70161004  0.98457440     0.39100
C402        C  0.89899911  0.86158653  0.92995585     0.36000
C403        C  0.80050260  0.87747629  0.97713199     0.36700
C404        C  0.75504703  0.86435372  0.85913295     0.39900
N405        N  0.82898610  0.67016299  0.99644239    -0.38100
N406        N  0.74178198  0.74941578  0.95832506    -0.39700
N407        N  0.99972968  0.81248111  0.95224601    -0.37500
N408        N  0.90991942  0.89533820  0.92038488    -0.39800
N409        N  0.83123891  0.77537218  0.86959771    -0.39600
N410        N  0.74735176  0.86249311  0.83500817    -0.37200
N411        N  0.71980081  0.96214620  0.96870279    -0.38300
N412        N  0.81117764  0.88100584  0.50069083    -0.40000
C413        C  0.77252845  0.16651094  0.83256980    -0.04900
C414        C  0.81242029  0.15184743  0.82020168     0.09300
C415        C  0.82256959  0.10616212  0.82011998    -0.02300
C416        C  0.79261105  0.07509256  0.83180872    -0.00500
C417        C  0.75188934  0.08945182  0.84345500    -0.04200
C418        C  0.74249744  0.13550673  0.84440195     0.02900
C419        C  0.84477925  0.18455750  0.80812059     0.09700
C420        C  0.86417345  0.09121859  0.80811073     0.35600
C421        C  0.70171686  0.15118137  0.85715855     0.39000
C422        C  0.88051749  0.19940241  0.82483818    -0.04500
C423        C  0.91205500  0.22907822  0.81332845     0.02600
C424        C  0.90830642  0.24379255  0.78475938    -0.04100
C425        C  0.87249867  0.22845119  0.76797157    -0.00300
C426        C  0.84060967  0.19942965  0.77977231    -0.02900
C427        C  0.88439581  0.18425857  0.85408080     0.36300
C428        C  0.86909606  0.24122827  0.73821383     0.40000
C429        C  0.94736049  0.24557287  0.83136643     0.39100
C430        C  0.80333302  0.18483268  0.76276321     0.36000
C431        C  0.76239061  0.21358888  0.83302584     0.36700
C432        C  0.80477375  0.02851873  0.83303975     0.39900
N433        N  0.97543053  0.25879925  0.84578099    -0.38100
N434        N  0.88716979  0.17194323  0.87736549    -0.39700
N435        N  0.86662837  0.25142519  0.71448491    -0.37500
N436        N  0.77346311  0.17347299  0.74924491    -0.39800
N437        N  0.89741869  0.07941992  0.79859519    -0.39600
N438        N  0.81446370  0.99140358  0.83425001    -0.37200
N439        N  0.66934424  0.16368971  0.86753496    -0.38300
N440        N  0.75414488  0.25110624  0.83335865    -0.40000
C441        C  0.53920028  0.98104793  0.98310573    -0.04900
C442        C  0.50609681  0.01386460  0.98172037     0.09300
C443        C  0.50517716  0.04327197  0.95828292    -0.02300
C444        C  0.53769614  0.04044953  0.93669008    -0.00500
C445        C  0.57047617  0.00720016  0.93790805    -0.04200
C446        C  0.57051283  0.97694519  0.96094425     0.02900
C447        C  0.47154191  0.01617668  0.50466282     0.09700
C448        C  0.46997486  0.07553695  0.95593294     0.35600
C449        C  0.60255343  0.94127558  0.96183830     0.39000
C450        C  0.47405321  0.04898637  0.52615791    -0.04500
C451        C  0.44386903  0.04848130  0.54921837     0.02600
C452        C  0.41100604  0.01494205  0.55098100    -0.04100
C453        C  0.40779497  0.98292654  0.52894475    -0.00300
C454        C  0.43777417  0.98371595  0.50585373    -0.02900
C455        C  0.50867902  0.08243564  0.52496943     0.36300
C456        C  0.37329789  0.94927651  0.52981743     0.40000
C457        C  0.44836994  0.08102197  0.57190892     0.39100
C458        C  0.43427934  0.95069916  0.98337670     0.36000
C459        C  0.54097082  0.95138453  0.50745358     0.36700
C460        C  0.53582207  0.07010282  0.91233672     0.39900
N461        N  0.45206235  0.10688685  0.59005009    -0.38100
N462        N  0.53628123  0.10912123  0.52395710    -0.39700
N463        N  0.34580163  0.92246094  0.53061241    -0.37500
N464        N  0.43158031  0.92431031  0.96548316    -0.39800
N465        N  0.44186705  0.10121976  0.95381178    -0.39600
N466        N  0.53435674  0.09347398  0.89278705    -0.37200
N467        N  0.62761083  0.91237639  0.96233589    -0.38300
N468        N  0.54238123  0.92780209  0.52689147    -0.40000
C469        C  0.46824371  0.94587079  0.71949521    -0.04900
C470        C  0.48621658  0.98454224  0.73198375     0.09300
C471        C  0.47429417  0.02663307  0.72140873    -0.02300
C472        C  0.44339467  0.03023277  0.69911450    -0.00500
C473        C  0.42501543  0.99149382  0.68649166    -0.04200
C474        C  0.43831519  0.94920403  0.69656001     0.02900
C475        C  0.51709040  0.98137318  0.75677965     0.09700
C476        C  0.49384255  0.06639956  0.73367895     0.35600
C477        C  0.42244459  0.90894603  0.68286024     0.39000
C478        C  0.56276939  0.97548515  0.75222718    -0.04500
C479        C  0.59218515  0.97609939  0.77552105     0.02600
C480        C  0.57611051  0.98340942  0.80347947    -0.04100
C481        C  0.53015590  0.98773795  0.80808234    -0.00300
C482        C  0.50075917  0.98624306  0.78482934    -0.02900
C483        C  0.57946276  0.96936375  0.72346611     0.36300
C484        C  0.51295376  0.99235583  0.83687038     0.40000
C485        C  0.63916005  0.97073748  0.77056334     0.39100
C486        C  0.45353832  0.98927776  0.78968438     0.36000
C487        C  0.48039384  0.90261407  0.73051257     0.36700
C488        C  0.42935816  0.07409559  0.69011999     0.39900
N489        N  0.67663664  0.96633323  0.76668934    -0.38100
N490        N  0.59271748  0.96437891  0.70051370    -0.39700
N491        N  0.49934857  0.99581761  0.85985873    -0.37500
N492        N  0.41583509  0.99133510  0.79348179    -0.39800
N493        N  0.50958200  0.09806823  0.74340359    -0.39600
N494        N  0.41802818  0.10903894  0.68300945    -0.37200
N495        N  0.41003484  0.87678840  0.67186113    -0.38300
N496        N  0.49005957  0.86817977  0.73942383    -0.40000
C497        C  0.13954968  0.81068521  0.53415102    -0.04900
C498        C  0.14419346  0.81438968  0.56396561     0.09300
C499        C  0.11852277  0.78707748  0.58204498    -0.02300
C500        C  0.08822035  0.75622093  0.57037798    -0.00500
C501        C  0.08392248  0.75191960  0.54040066    -0.04200
C502        C  0.11011419  0.77919282  0.52237347     0.02900
C503        C  0.17629396  0.84726978  0.57621237     0.09700
C504        C  0.12343367  0.79087665  0.61271488     0.35600
C505        C  0.10598069  0.77602125  0.99161718     0.39000
C506        C  0.16209533  0.89017713  0.58404538    -0.04500
C507        C  0.19265625  0.92181432  0.59446228     0.02600
C508        C  0.23798371  0.91099398  0.59661073    -0.04100
C509        C  0.25201711  0.86775977  0.58889305    -0.00300
C510        C  0.22120240  0.83596766  0.57902696    -0.02900
C511        C  0.11592151  0.90181975  0.58105376     0.36300
C512        C  0.29851040  0.85642904  0.58980513     0.40000
C513        C  0.17704430  0.96506505  0.60365919     0.39100
C514        C  0.23569715  0.79158289  0.57147108     0.36000
C515        C  0.16447662  0.84019107  0.51559293     0.36700
C516        C  0.06243520  0.72811174  0.58934933     0.39900
N517        N  0.16437764  0.99945680  0.61105298    -0.38100
N518        N  0.07910196  0.91101001  0.57857780    -0.39700
N519        N  0.33562788  0.84760209  0.59043957    -0.37500
N520        N  0.24722575  0.75613432  0.56550844    -0.39800
N521        N  0.12746904  0.79404574  0.63716069    -0.39600
N522        N  0.04186049  0.70576225  0.60450867    -0.37200
N523        N  0.10287734  0.77341043  0.96708342    -0.38300
N524        N  0.18412131  0.86398434  0.50084307    -0.40000
C525        C  0.23359622  0.18109970  0.66758219    -0.04900
C526        C  0.19459016  0.16838586  0.68206478     0.09300
C527        C  0.18438910  0.12294702  0.68537946    -0.02300
C528        C  0.21253896  0.09012844  0.67403088    -0.00500
C529        C  0.25114635  0.10271175  0.65876986    -0.04200
C530        C  0.26162762  0.14836256  0.65588296     0.02900
C531        C  0.16360972  0.20278985  0.69347413     0.09700
C532        C  0.14420383  0.10988301  0.70034869     0.35600
C533        C  0.30225513  0.16197767  0.64165573     0.39000
C534        C  0.13098852  0.22089238  0.67566979    -0.04500
C535        C  0.09815822  0.24896880  0.68710065     0.02600
C536        C  0.09887400  0.26070213  0.71643206    -0.04100
C537        C  0.13319331  0.24432689  0.73386547    -0.00300
C538        C  0.16487103  0.21480710  0.72255668    -0.02900
C539        C  0.13078424  0.20975034  0.64549746     0.36300
C540        C  0.13469949  0.25567217  0.76399250     0.40000
C541        C  0.06359241  0.26529233  0.66864498     0.39100
C542        C  0.19783805  0.19529185  0.74094876     0.36000
C543        C  0.24478338  0.22774853  0.66495313     0.36700
C544        C  0.20099753  0.04364816  0.67739599     0.39900
N545        N  0.03572951  0.27784404  0.65385057    -0.38100
N546        N  0.13095797  0.20098048  0.62150885    -0.39700
N547        N  0.13586082  0.26471535  0.78791204    -0.37500
N548        N  0.22399166  0.17921081  0.75559178    -0.39800
N549        N  0.11233956  0.09967244  0.71222156    -0.39600
N550        N  0.19178636  0.00641410  0.68021267    -0.37200
N551        N  0.33450317  0.17279262  0.63044478    -0.38300
N552        N  0.25384675  0.26512846  0.66286882    -0.40000
loop_ 
_geom_bond_atom_site_label_1 
_geom_bond_atom_site_label_2 
_geom_bond_distance 
_geom_bond_site_symmetry_2 
_ccdc_geom_bond_type 
In1           O3   2.243       .  S
In1           O4   2.253       .  S
In1          O12   2.241       .  S
In1           O6   2.256   1_545  S
In1           O8   2.249   1_545  S
In1           O9   2.257       .  S
In1          O10   2.253   1_545  S
In1          O13   2.240   1_545  S
C2            O8   1.262       .  A
C2           O10   1.261       .  A
C2          C232   1.491       .  S
O3           C11   1.259       .  A
O4           C11   1.263       .  A
C5           O12   1.260   1_565  A
C5            O6   1.262       .  A
C5          C197   1.495       .  S
C7            O9   1.262       .  A
C7           O13   1.260   1_545  A
C7          C176   1.489       .  S
C11         C253   1.490       .  S
In14         O16   2.239       .  S
In14         O17   2.258       .  S
In14         O25   2.239       .  S
In14         O19   2.249   1_565  S
In14         O21   2.253   1_565  S
In14         O22   2.256       .  S
In14         O23   2.237   1_565  S
In14         O26   2.244   1_565  S
C15          O21   1.262       .  A
C15          O23   1.260       .  A
C15         C141   1.489       .  S
O16          C24   1.260       .  A
O17          C24   1.263       .  A
C18          O25   1.260   1_545  A
C18          O19   1.262       .  A
C18         C169   1.485       .  S
C20          O22   1.262       .  A
C20          O26   1.259   1_565  A
C20         C204   1.486       .  S
C24         C113   1.492       .  S
In27         O29   2.249   1_655  S
In27         O38   2.229   1_655  S
In27         O32   2.252       .  S
In27         O34   2.242       .  S
In27        O306   2.250   1_655  S
In27        O311   2.259   1_654  S
In27        O312   2.250   1_554  S
In27        O315   2.225   1_554  S
C28          O36   1.262       .  A
C28         O310   1.262       .  A
C28         C120   1.493       .  S
O29          C37   1.261       .  A
O30        In303   2.250   1_455  S
O30         C313   1.262       .  A
C31          O38   1.261   1_655  A
C31          O32   1.261       .  A
C31          C57   1.492       .  S
C33          O35   1.264       .  A
C33          O39   1.259   1_455  A
C33          C92   1.490       .  S
O34         C304   1.262   1_554  A
O35        In303   2.259   1_455  S
O36        In303   2.250       .  S
C37         O306   1.262       .  A
C37         C225   1.493       .  S
O39        In303   2.225       .  S
In40         O42   2.251       .  S
In40         O43   2.232       .  S
In40         O51   2.248       .  S
In40         O45   2.249   1_655  S
In40         O47   2.254   1_655  S
In40         O48   2.242       .  S
In40         O49   2.242   1_655  S
In40         O52   2.228   1_655  S
C41          O47   1.263       .  A
C41          O49   1.260       .  A
C41         C260   1.492       .  S
O42          C50   1.262       .  A
O43          C50   1.259       .  A
C44          O51   1.258   1_455  A
C44          O45   1.261       .  A
C44          C85   1.494       .  S
C46          O48   1.260       .  A
C46          O52   1.260   1_655  A
C46          C64   1.486       .  S
C50         C148   1.490       .  S
C53          C54   1.409       .  A
C53          C58   1.409       .  A
C53          C71   1.451   1_655  S
C54          C59   1.493       .  S
C54          C55   1.409       .  A
C55          C56   1.411       .  A
C55          C60   1.452       .  S
C56          C57   1.418       .  A
C56          C72   1.450       .  S
C57          C58   1.419       .  A
C58          C61   1.453   1_655  S
C59          C62   1.410       .  A
C59          C66   1.410       .  A
C60          N77   1.157       .  T
C61          N79   1.156       .  T
C62          C63   1.406       .  A
C62          C67   1.452   1_655  S
C63          C64   1.415       .  A
C63          C69   1.452   1_655  S
C64          C65   1.418       .  A
C65          C66   1.412       .  A
C65          C68   1.452       .  S
C66          C70   1.450       .  S
C67          N74   1.157       .  T
C68          N75   1.158       .  T
C69          N73   1.157       .  T
C70          N76   1.157       .  T
C71          N80   1.157       .  T
C72          N78   1.158       .  T
C81          C82   1.408       .  A
C81          C86   1.410       .  A
C81          C99   1.451       .  S
C82          C87   1.494       .  S
C82          C83   1.409   1_455  A
C83          C84   1.411       .  A
C83          C88   1.453       .  S
C84          C85   1.420   1_655  A
C84         C100   1.451       .  S
C85          C86   1.418       .  A
C86          C89   1.451       .  S
C87          C90   1.410       .  A
C87          C94   1.408   1_455  A
C88         N105   1.157       .  T
C89         N107   1.157       .  T
C90          C91   1.411       .  A
C90          C95   1.451       .  S
C91          C92   1.417       .  A
C91          C97   1.451       .  S
C92          C93   1.420   1_455  A
C93          C94   1.409       .  A
C93          C96   1.452       .  S
C94          C98   1.452       .  S
C95         N102   1.157       .  T
C96         N103   1.157       .  T
C97         N101   1.157       .  T
C98         N104   1.157       .  T
C99         N108   1.157       .  T
C100        N106   1.157       .  T
C109        C110   1.409       .  A
C109        C114   1.410       .  A
C109        C127   1.451       .  S
C110        C115   1.499       .  S
C110        C111   1.411       .  A
C111        C112   1.414       .  A
C111        C116   1.450       .  S
C112        C113   1.417       .  A
C112        C128   1.451       .  S
C113        C114   1.417       .  A
C114        C117   1.451       .  S
C115        C118   1.410       .  A
C115        C122   1.410       .  A
C116        N133   1.157       .  T
C117        N135   1.157       .  T
C118        C119   1.412       .  A
C118        C123   1.451       .  S
C119        C120   1.418       .  A
C119        C125   1.452       .  S
C120        C121   1.417       .  A
C121        C122   1.412       .  A
C121        C124   1.451       .  S
C122        C126   1.451       .  S
C123        N130   1.157       .  T
C124        N131   1.157       .  T
C125        N129   1.157       .  T
C126        N132   1.157       .  T
C127        N412   1.157       .  T
C128        N134   1.157       .  T
N136        C403   1.157   1_554  T
C137        C138   1.411       .  A
C137        C142   1.412       .  A
C137        C155   1.451       .  S
C138        C143   1.496       .  S
C138        C139   1.410       .  A
C139        C140   1.409       .  A
C139        C144   1.451       .  S
C140        C141   1.416       .  A
C140        C156   1.452       .  S
C141        C142   1.416       .  A
C142        C145   1.451       .  S
C143        C146   1.410       .  A
C143        C150   1.410       .  A
C144        N161   1.157       .  T
C145        N163   1.157       .  T
C146        C147   1.411       .  A
C146        C151   1.451       .  S
C147        C148   1.417       .  A
C147        C153   1.451       .  S
C148        C149   1.418       .  A
C149        C150   1.411       .  A
C149        C152   1.452       .  S
C150        C154   1.451       .  S
C151        N158   1.157       .  T
C152        N159   1.157       .  T
C153        N157   1.157       .  T
C154        N160   1.157       .  T
C155        N164   1.157       .  T
C156        N162   1.157   1_545  T
C165        C166   1.412   1_565  A
C165        C170   1.410       .  A
C165        C459   1.451       .  S
C166        C447   1.500       .  S
C166        C167   1.412       .  A
C167        C168   1.412       .  A
C167        C172   1.450       .  S
C168        C169   1.414       .  A
C168        C184   1.452       .  S
C169        C170   1.414   1_545  A
C170        C173   1.451       .  S
C171        C442   1.500   1_554  S
C171        C174   1.412       .  A
C171        C178   1.412   1_545  A
C172        N189   1.157       .  T
C173        N191   1.157       .  T
C174        C175   1.413       .  A
C174        C179   1.451       .  S
C175        C176   1.416       .  A
C175        C181   1.451       .  S
C176        C177   1.415   1_545  A
C177        C178   1.410       .  A
C177        C180   1.452       .  S
C178        C458   1.451   1_554  S
C179        N186   1.157       .  T
C180        N187   1.157       .  T
C181        N185   1.157       .  T
C182        C454   1.451       .  S
C182        N188   1.157       .  T
C183        C441   1.451   1_554  S
C183        N192   1.157       .  T
C184        N190   1.157       .  T
C193        C194   1.410       .  A
C193        C198   1.413       .  A
C193        C211   1.450       .  S
C194        C199   1.499       .  S
C194        C195   1.410   1_565  A
C195        C196   1.411       .  A
C195        C200   1.451       .  S
C196        C197   1.419   1_545  A
C196        C212   1.452       .  S
C197        C198   1.418       .  A
C198        C201   1.451       .  S
C199        C202   1.411       .  A
C199        C206   1.411       .  A
C200        N217   1.157       .  T
C201        N219   1.157       .  T
C202        C203   1.412       .  A
C202        C207   1.450       .  S
C203        C204   1.414       .  A
C203        C209   1.451       .  S
C204        C205   1.414       .  A
C205        C206   1.411       .  A
C205        C208   1.452       .  S
C206        C210   1.451       .  S
C207        N214   1.157       .  T
C208        N215   1.157       .  T
C209        N213   1.157       .  T
C210        N216   1.157       .  T
C211        N220   1.157       .  T
C212        N218   1.157       .  T
C221        C222   1.410       .  A
C221        C226   1.411       .  A
C221        C239   1.451       .  S
C222        C227   1.499       .  S
C222        C223   1.410       .  A
C223        C224   1.413       .  A
C223        C228   1.451       .  S
C224        C225   1.418       .  A
C224        C240   1.451       .  S
C225        C226   1.417       .  A
C226        C505   1.451   1_554  S
C227        C230   1.410       .  A
C227        C234   1.411       .  A
C228        N245   1.157       .  T
C229        C502   1.451       .  S
C229        N247   1.157       .  T
C230        C231   1.412       .  A
C230        C235   1.451       .  S
C231        C232   1.417       .  A
C231        C237   1.451       .  S
C232        C233   1.416       .  A
C233        C234   1.412       .  A
C233        C236   1.451       .  S
C234        C238   1.451       .  S
C235        N242   1.157       .  T
C236        N243   1.157       .  T
C237        N241   1.157       .  T
C238        N244   1.157       .  T
C239        N248   1.157       .  T
C240        N246   1.157       .  T
C249        C250   1.412       .  A
C249        C254   1.412       .  A
C249        C267   1.447       .  S
C250        C255   1.497       .  S
C250        C251   1.409       .  A
C251        C252   1.410       .  A
C251        C256   1.455       .  S
C252        C253   1.419       .  A
C252        C268   1.448       .  S
C253        C254   1.414       .  A
C254        C257   1.455       .  S
C255        C258   1.408       .  A
C255        C262   1.411       .  A
C256        N273   1.153       .  T
C257        N275   1.153       .  T
C258        C259   1.411       .  A
C258        C263   1.454       .  S
C259        C260   1.420       .  A
C259        C265   1.449       .  S
C260        C261   1.416       .  A
C261        C262   1.412       .  A
C261        C264   1.454       .  S
C262        C266   1.449       .  S
C263        N270   1.155       .  T
C264        N271   1.154       .  T
C265        N269   1.160       .  T
C266        N272   1.159       .  T
C267        N276   1.160       .  T
C268        N274   1.161       .  T
In277       O279   2.243       .  S
In277       O280   2.253       .  S
In277       O288   2.241       .  S
In277       O282   2.256   1_545  S
In277       O284   2.249   1_545  S
In277       O285   2.257       .  S
In277       O286   2.253   1_545  S
In277       O289   2.240   1_545  S
C278        O284   1.262       .  A
C278        O286   1.261       .  A
C278        C508   1.491       .  S
O279        C287   1.259       .  A
O280        C287   1.263       .  A
C281        O288   1.260   1_565  A
C281        O282   1.262       .  A
C281        C473   1.495       .  S
C283        O285   1.262       .  A
C283        O289   1.260   1_545  A
C283        C452   1.489       .  S
C287        C529   1.490       .  S
In290       O292   2.239       .  S
In290       O293   2.258       .  S
In290       O301   2.239       .  S
In290       O295   2.249   1_565  S
In290       O297   2.253   1_565  S
In290       O298   2.256       .  S
In290       O299   2.237   1_565  S
In290       O302   2.244   1_565  S
C291        O297   1.262       .  A
C291        O299   1.260       .  A
C291        C417   1.489       .  S
O292        C300   1.260       .  A
O293        C300   1.263       .  A
C294        O301   1.260   1_545  A
C294        O295   1.262       .  A
C294        C445   1.485       .  S
C296        O298   1.262       .  A
C296        O302   1.259   1_565  A
C296        C480   1.486       .  S
C300        C389   1.492       .  S
In303       O305   2.249   1_655  S
In303       O314   2.229   1_655  S
In303       O308   2.252       .  S
In303       O310   2.242       .  S
C304        O312   1.262       .  A
C304        C396   1.493       .  S
O305        C313   1.261       .  A
C307        O314   1.261   1_655  A
C307        O308   1.261       .  A
C307        C333   1.492       .  S
C309        O311   1.264       .  A
C309        O315   1.259   1_455  A
C309        C368   1.490       .  S
C313        C501   1.493       .  S
In316       O318   2.251       .  S
In316       O319   2.232       .  S
In316       O327   2.248       .  S
In316       O321   2.249   1_655  S
In316       O323   2.254   1_655  S
In316       O324   2.242       .  S
In316       O325   2.242   1_655  S
In316       O328   2.228   1_655  S
C317        O323   1.263       .  A
C317        O325   1.260       .  A
C317        C536   1.492       .  S
O318        C326   1.262       .  A
O319        C326   1.259       .  A
C320        O327   1.258   1_455  A
C320        O321   1.261       .  A
C320        C361   1.494       .  S
C322        O324   1.260       .  A
C322        O328   1.260   1_655  A
C322        C340   1.486       .  S
C326        C424   1.490       .  S
C329        C330   1.409       .  A
C329        C334   1.409       .  A
C329        C347   1.451   1_655  S
C330        C335   1.493       .  S
C330        C331   1.409       .  A
C331        C332   1.411       .  A
C331        C336   1.452       .  S
C332        C333   1.418       .  A
C332        C348   1.450       .  S
C333        C334   1.419       .  A
C334        C337   1.453   1_655  S
C335        C338   1.410       .  A
C335        C342   1.410       .  A
C336        N353   1.157       .  T
C337        N355   1.156       .  T
C338        C339   1.406       .  A
C338        C343   1.452   1_655  S
C339        C340   1.415       .  A
C339        C345   1.452   1_655  S
C340        C341   1.418       .  A
C341        C342   1.412       .  A
C341        C344   1.452       .  S
C342        C346   1.450       .  S
C343        N350   1.157       .  T
C344        N351   1.157       .  T
C345        N349   1.157       .  T
C346        N352   1.157       .  T
C347        N356   1.157       .  T
C348        N354   1.158       .  T
C357        C358   1.408       .  A
C357        C362   1.410       .  A
C357        C375   1.451       .  S
C358        C363   1.494       .  S
C358        C359   1.409   1_455  A
C359        C360   1.411       .  A
C359        C364   1.453       .  S
C360        C361   1.420   1_655  A
C360        C376   1.451       .  S
C361        C362   1.418       .  A
C362        C365   1.451       .  S
C363        C366   1.410       .  A
C363        C370   1.408   1_455  A
C364        N381   1.157       .  T
C365        N383   1.157       .  T
C366        C367   1.411       .  A
C366        C371   1.451       .  S
C367        C368   1.417       .  A
C367        C373   1.451       .  S
C368        C369   1.420   1_455  A
C369        C370   1.409       .  A
C369        C372   1.452       .  S
C370        C374   1.452       .  S
C371        N378   1.157       .  T
C372        N379   1.157       .  T
C373        N377   1.157       .  T
C374        N380   1.157       .  T
C375        N384   1.157       .  T
C376        N382   1.157       .  T
C385        C386   1.409       .  A
C385        C390   1.410       .  A
C385        C403   1.451       .  S
C386        C391   1.499       .  S
C386        C387   1.411       .  A
C387        C388   1.414       .  A
C387        C392   1.451       .  S
C388        C389   1.417       .  A
C388        C404   1.451       .  S
C389        C390   1.417       .  A
C390        C393   1.451       .  S
C391        C394   1.410       .  A
C391        C398   1.410       .  A
C392        N409   1.157       .  T
C393        N411   1.157       .  T
C394        C395   1.412       .  A
C394        C399   1.451       .  S
C395        C396   1.418       .  A
C395        C401   1.452       .  S
C396        C397   1.417       .  A
C397        C398   1.412       .  A
C397        C400   1.451       .  S
C398        C402   1.451       .  S
C399        N406   1.157       .  T
C400        N407   1.157       .  T
C401        N405   1.157       .  T
C402        N408   1.157       .  T
C404        N410   1.157       .  T
C413        C414   1.411       .  A
C413        C418   1.412       .  A
C413        C431   1.451       .  S
C414        C419   1.496       .  S
C414        C415   1.410       .  A
C415        C416   1.409       .  A
C415        C420   1.451       .  S
C416        C417   1.416       .  A
C416        C432   1.452       .  S
C417        C418   1.416       .  A
C418        C421   1.451       .  S
C419        C422   1.410       .  A
C419        C426   1.410       .  A
C420        N437   1.157       .  T
C421        N439   1.157       .  T
C422        C423   1.411       .  A
C422        C427   1.451       .  S
C423        C424   1.417       .  A
C423        C429   1.451       .  S
C424        C425   1.418       .  A
C425        C426   1.411       .  A
C425        C428   1.452       .  S
C426        C430   1.451       .  S
C427        N434   1.157       .  T
C428        N435   1.157       .  T
C429        N433   1.157       .  T
C430        N436   1.157       .  T
C431        N440   1.157       .  T
C432        N438   1.157   1_545  T
C441        C442   1.412   1_565  A
C441        C446   1.410       .  A
C442        C443   1.412       .  A
C443        C444   1.412       .  A
C443        C448   1.450       .  S
C444        C445   1.414       .  A
C444        C460   1.452       .  S
C445        C446   1.414   1_545  A
C446        C449   1.451       .  S
C447        C450   1.412       .  A
C447        C454   1.412   1_545  A
C448        N465   1.157       .  T
C449        N467   1.157       .  T
C450        C451   1.413       .  A
C450        C455   1.451       .  S
C451        C452   1.416       .  A
C451        C457   1.451       .  S
C452        C453   1.415   1_545  A
C453        C454   1.410       .  A
C453        C456   1.452       .  S
C455        N462   1.157       .  T
C456        N463   1.157       .  T
C457        N461   1.157       .  T
C458        N464   1.157       .  T
C459        N468   1.157       .  T
C460        N466   1.157       .  T
C469        C470   1.410       .  A
C469        C474   1.413       .  A
C469        C487   1.450       .  S
C470        C475   1.499       .  S
C470        C471   1.410   1_565  A
C471        C472   1.411       .  A
C471        C476   1.451       .  S
C472        C473   1.419   1_545  A
C472        C488   1.452       .  S
C473        C474   1.418       .  A
C474        C477   1.451       .  S
C475        C478   1.411       .  A
C475        C482   1.411       .  A
C476        N493   1.157       .  T
C477        N495   1.157       .  T
C478        C479   1.413       .  A
C478        C483   1.450       .  S
C479        C480   1.414       .  A
C479        C485   1.451       .  S
C480        C481   1.414       .  A
C481        C482   1.411       .  A
C481        C484   1.452       .  S
C482        C486   1.451       .  S
C483        N490   1.157       .  T
C484        N491   1.157       .  T
C485        N489   1.157       .  T
C486        N492   1.157       .  T
C487        N496   1.157       .  T
C488        N494   1.157       .  T
C497        C498   1.410       .  A
C497        C502   1.411       .  A
C497        C515   1.451       .  S
C498        C503   1.499       .  S
C498        C499   1.410       .  A
C499        C500   1.413       .  A
C499        C504   1.451       .  S
C500        C501   1.418       .  A
C500        C516   1.451       .  S
C501        C502   1.417       .  A
C503        C506   1.410       .  A
C503        C510   1.411       .  A
C504        N521   1.157       .  T
C505        N523   1.157       .  T
C506        C507   1.412       .  A
C506        C511   1.451       .  S
C507        C508   1.417       .  A
C507        C513   1.451       .  S
C508        C509   1.416       .  A
C509        C510   1.412       .  A
C509        C512   1.451       .  S
C510        C514   1.451       .  S
C511        N518   1.157       .  T
C512        N519   1.157       .  T
C513        N517   1.157       .  T
C514        N520   1.157       .  T
C515        N524   1.157       .  T
C516        N522   1.157       .  T
C525        C526   1.412       .  A
C525        C530   1.412       .  A
C525        C543   1.447       .  S
C526        C531   1.497       .  S
C526        C527   1.409       .  A
C527        C528   1.410       .  A
C527        C532   1.455       .  S
C528        C529   1.419       .  A
C528        C544   1.448       .  S
C529        C530   1.414       .  A
C530        C533   1.455       .  S
C531        C534   1.408       .  A
C531        C538   1.411       .  A
C532        N549   1.153       .  T
C533        N551   1.153       .  T
C534        C535   1.411       .  A
C534        C539   1.454       .  S
C535        C536   1.420       .  A
C535        C541   1.449       .  S
C536        C537   1.416       .  A
C537        C538   1.412       .  A
C537        C540   1.454       .  S
C538        C542   1.449       .  S
C539        N546   1.155       .  T
C540        N547   1.154       .  T
C541        N545   1.160       .  T
C542        N548   1.159       .  T
C543        N552   1.160       .  T
C544        N550   1.161       .  T
