geometry optimzed in LAMMPS
_audit_creation_date              2020-12-01 
_audit_creation_method            'lammps2cif' 
_symmetry_space_group_name_H-M    'P1' 
_symmetry_Int_Tables_number       1 
_symmetry_cell_setting            triclinic 
loop_ 
_symmetry_equiv_pos_as_xyz 
  x,y,z 
_cell_length_a                    60.23005097 
_cell_length_b                    61.10603929128475 
_cell_length_c                    60.513116842625955 
_cell_angle_alpha                 89.76167005572329 
_cell_angle_beta                  90.32550593249962 
_cell_angle_gamma                 89.90939629886986 
loop_ 
_atom_site_label 
_atom_site_type_symbol 
_atom_site_fract_x 
_atom_site_fract_y 
_atom_site_fract_z 
_atom_site_charge 
C1          C  0.79628892  0.82757160  0.02401492     0.02900
C2          C  0.79183844  0.81477339  0.00536479    -0.13200
C3          C  0.79993975  0.82104966  0.98462763     0.00400
C4          C  0.81299150  0.83998079  0.98268504    -0.11700
C5          C  0.81767429  0.85287665  0.00129882     0.02900
C6          C  0.80932385  0.84644593  0.02190726    -0.11200
H7          H  0.78173312  0.80019829  0.00690677     0.08500
H8          H  0.81911534  0.84488402  0.96660302     0.06000
H9          H  0.81323672  0.85595934  0.03649154     0.05900
C10         C  0.75956537  0.20949127  0.02300574     0.02900
C11         C  0.77851385  0.19599172  0.02362911    -0.13200
C12         C  0.78722127  0.18710501  0.00414518     0.00400
C13         C  0.77696388  0.19203614  0.98389704    -0.11700
C14         C  0.75788453  0.20521683  0.98283939     0.02900
C15         C  0.74936696  0.21413377  0.00250322    -0.11200
H16         H  0.78658298  0.19251170  0.03931000     0.08500
H17         H  0.78430455  0.18605678  0.96876308     0.06000
H18         H  0.73483753  0.22460153  0.00187464     0.05900
C19         C  0.19250951  0.85219747  0.02379072     0.02900
C20         C  0.17577267  0.86811565  0.02314908    -0.13200
C21         C  0.16851695  0.87689379  0.00294546     0.00400
C22         C  0.17818269  0.86953921  0.98330136    -0.11700
C23         C  0.19494157  0.85354097  0.98376063     0.02900
C24         C  0.20214746  0.84496122  0.00410355    -0.11200
H25         H  0.16804498  0.87327773  0.03840641     0.08500
H26         H  0.17250407  0.87612380  0.96759227     0.06000
H27         H  0.21529852  0.83284208  0.00462831     0.05900
C28         C  0.78757027  0.04799823  0.80356368     0.02900
C29         C  0.80331978  0.04584329  0.82054415    -0.13200
C30         C  0.81121232  0.02512410  0.82698962     0.00400
C31         C  0.80266342  0.00641467  0.81646891    -0.11700
C32         C  0.78662813  0.00842521  0.79950269     0.02900
C33         C  0.77920722  0.02931389  0.79313657    -0.11200
H34         H  0.80946464  0.06038694  0.82873715     0.08500
H35         H  0.80837513  0.99032790  0.82154517     0.06000
H36         H  0.76689914  0.03104150  0.78010274     0.05900
C37         C  0.96541251  0.20632616  0.78578803     0.02900
C38         C  0.98576993  0.21099416  0.77558884    -0.13200
C39         C  0.00572097  0.20258934  0.78437015     0.00400
C40         C  0.00504120  0.18925713  0.80335837    -0.11700
C41         C  0.98486501  0.18485629  0.81386965     0.02900
C42         C  0.96512964  0.19347328  0.80507184    -0.11200
H43         H  0.98603448  0.22097763  0.76075208     0.08500
H44         H  0.02032643  0.18290746  0.81044696     0.06000
H45         H  0.94952653  0.19022101  0.81329507     0.05900
C46         C  0.95817451  0.85103214  0.80228143     0.02900
C47         C  0.96127464  0.86557780  0.81982519    -0.13200
C48         C  0.98262372  0.87158881  0.82671904     0.00400
C49         C  0.00108595  0.86331196  0.81542814    -0.11700
C50         C  0.99832610  0.84904133  0.79744208     0.02900
C51         C  0.97676395  0.84260865  0.79122675    -0.11200
H52         H  0.94692361  0.87217580  0.82823402     0.08500
H53         H  0.01764938  0.86774930  0.82085276     0.06000
H54         H  0.97441799  0.83142577  0.77756355     0.05900
C55         C  0.17910163  0.04597658  0.80929063     0.02900
C56         C  0.16366494  0.04913400  0.82611657    -0.13200
C57         C  0.15246023  0.03127516  0.83513594     0.00400
C58         C  0.15694989  0.01018643  0.82750776    -0.11700
C59         C  0.17246550  0.00697525  0.81070769     0.02900
C60         C  0.18336481  0.02495870  0.80133770    -0.11200
H61         H  0.16048586  0.06548284  0.83226525     0.08500
H62         H  0.14831393  0.99628288  0.83457441     0.06000
H63         H  0.19545811  0.02257020  0.78836760     0.05900
C64         C  0.96208874  0.81551003  0.17990301     0.02900
C65         C  0.98242044  0.80611280  0.18651011    -0.13200
C66         C  0.00256770  0.81596830  0.18035353     0.00400
C67         C  0.00221303  0.83500654  0.16722081    -0.11700
C68         C  0.98200796  0.84462893  0.16081934     0.02900
C69         C  0.96211301  0.83483830  0.16735636    -0.11200
H70         H  0.98256309  0.79145792  0.19665225     0.08500
H71         H  0.01772315  0.84231634  0.16202082     0.06000
H72         H  0.94646716  0.84255052  0.16295555     0.05900
C73         C  0.77310456  0.05450565  0.19249696     0.02900
C74         C  0.79090072  0.05321436  0.17775951    -0.13200
C75         C  0.79878137  0.03292132  0.17065762     0.00400
C76         C  0.78896647  0.01375224  0.17860800    -0.11700
C77         C  0.77121823  0.01467612  0.19352731     0.02900
C78         C  0.76343661  0.03518640  0.20062279    -0.11200
H79         H  0.79878975  0.06808490  0.17194645     0.08500
H80         H  0.79488410  0.99804886  0.17277565     0.06000
H81         H  0.74992498  0.03614112  0.21232153     0.05900
C82         C  0.96271610  0.21028059  0.22512169     0.02900
C83         C  0.96210921  0.19647214  0.20663047    -0.13200
C84         C  0.98175415  0.18981791  0.19632558     0.00400
C85         C  0.00218273  0.19712420  0.20458456    -0.11700
C86         C  0.00310289  0.21105243  0.22290936     0.02900
C87         C  0.98333009  0.21768107  0.23318179    -0.11200
H88         H  0.94624937  0.19115750  0.20003000     0.08500
H89         H  0.01745432  0.19183459  0.19682870     0.06000
H90         H  0.98399103  0.22840792  0.24738242     0.05900
Zr91       Zr  0.26106819  0.30006288  0.28074790     2.17500
O92         O  0.29081568  0.29593148  0.30795375    -0.51500
O93         O  0.25856762  0.33940658  0.28284528    -0.74700
O94         O  0.29622050  0.31195347  0.26585842    -0.81500
O95         O  0.21679897  0.28793166  0.32398478    -0.83300
O96         O  0.29994133  0.29932199  0.23079378    -0.78900
O97         O  0.25039365  0.30411721  0.31888125    -0.90500
O98         O  0.23247349  0.35081238  0.25837400    -0.76500
O99         O  0.25455343  0.31111226  0.24361235    -0.86000
O100        O  0.22241446  0.30782776  0.27863301    -0.85700
O101        O  0.27334229  0.26984193  0.25882778    -0.72400
O102        O  0.24294044  0.26677781  0.29115783    -0.84600
Zr103      Zr  0.20878036  0.25505959  0.22856504     2.26400
Zr104      Zr  0.26549457  0.28066667  0.22144439     2.06300
Zr105      Zr  0.20405281  0.27442818  0.28802880     2.10000
Zr106      Zr  0.21595090  0.31858481  0.24142756     1.78800
O107        O  0.19599585  0.24612120  0.31524231    -0.93400
O108        O  0.22659394  0.34168583  0.21034896    -0.41200
O109        O  0.19690975  0.28537633  0.25064830    -0.77800
O110        O  0.22664317  0.28865346  0.21823544    -0.96500
O111        O  0.24730851  0.24729952  0.23096865    -0.89800
O112        O  0.21528095  0.24416729  0.26583425    -0.92600
C113        C  0.24742604  0.35450453  0.27312781     1.01100
C114        C  0.23400401  0.29834317  0.33102060     1.14000
C115        C  0.30703534  0.30974994  0.24781788     1.04800
O116        O  0.27428009  0.30678172  0.19231158    -0.94800
O117        O  0.25373454  0.26628410  0.18578125    -0.90500
O118        O  0.22087178  0.24906391  0.19103795    -0.83700
C119        C  0.23714178  0.25502150  0.17881526     1.11500
O120        O  0.28393245  0.23229169  0.29523146    -0.96800
Zr121      Zr  0.25403754  0.23689795  0.26825698     1.88900
O122        O  0.21114349  0.21532187  0.22752292    -0.73400
O123        O  0.29426207  0.25492670  0.21043483    -0.52700
O124        O  0.28543812  0.21918868  0.25042414    -0.97400
O125        O  0.24370735  0.21296699  0.29884967    -0.54600
O126        O  0.23881698  0.20457710  0.25082911    -0.73900
C127        C  0.22332990  0.20060242  0.23678349     0.98400
O128        O  0.17907448  0.26044656  0.20135639    -0.62800
O129        O  0.17413931  0.29809781  0.30064713    -0.57600
O130        O  0.17241496  0.24541448  0.24174903    -0.94200
O131        O  0.16836689  0.25913764  0.27629914    -0.92700
O132        O  0.18516527  0.33813709  0.25827259    -0.93000
O133        O  0.18523377  0.32421981  0.21566977    -0.91800
C134        C  0.16089134  0.24928333  0.25903990     1.17300
H135        H  0.21829727  0.31934747  0.28868718     0.33200
H136        H  0.22292931  0.29239698  0.20313371     0.44000
H137        H  0.20673378  0.23132858  0.26959917     0.37600
H138        H  0.28909867  0.26753597  0.26089447     0.34100
H139        H  0.21782498  0.35527397  0.21218006     0.25800
H140        H  0.30181156  0.26220140  0.19791121     0.31800
H141        H  0.28394765  0.20346249  0.25412357     0.37700
H142        H  0.17353305  0.32690108  0.26039061     0.32100
H143        H  0.16820177  0.29065520  0.31391662     0.31000
H144        H  0.18143865  0.25032892  0.32146253     0.32700
H145        H  0.22888506  0.20717611  0.29485726     0.31700
H146        H  0.18105783  0.30931640  0.21086048     0.35700
H147        H  0.16786987  0.26971359  0.20875008     0.28400
H148        H  0.29768607  0.31059735  0.30917562     0.32600
H149        H  0.28791740  0.21657230  0.29482620     0.35500
H150        H  0.18158504  0.31133023  0.30644349     0.28100
H151        H  0.18532439  0.27025402  0.18991600     0.41000
H152        H  0.27121006  0.32127874  0.19886602     0.31000
H153        H  0.24204982  0.34613348  0.21366725     0.38600
H154        H  0.24082980  0.22302167  0.31130616     0.30500
H155        H  0.30529653  0.25516186  0.22261751     0.30600
H156        H  0.30218077  0.28672542  0.30072468     0.30800
C157        C  0.19446418  0.04610014  0.18905929     0.02900
C158        C  0.17668528  0.04507985  0.17408356    -0.13200
C159        C  0.16920078  0.02492928  0.16598679     0.00400
C160        C  0.17971591  0.00561982  0.17316131    -0.11700
C161        C  0.19738856  0.00641881  0.18838280     0.02900
C162        C  0.20464638  0.02671669  0.19642993    -0.11200
H163        H  0.16838140  0.06006935  0.16908131     0.08500
H164        H  0.17418053  0.98994219  0.16690124     0.06000
H165        H  0.21843382  0.02745939  0.20798561     0.05900
Zr166      Zr  0.25705078  0.75324954  0.27933468     2.17500
O167        O  0.28488971  0.72425437  0.28175561    -0.51500
O168        O  0.25216676  0.75214930  0.31904912    -0.74700
O169        O  0.29361512  0.76648823  0.28981028    -0.81500
O170        O  0.21304088  0.71086572  0.26235875    -0.83300
O171        O  0.29752448  0.80184661  0.27920023    -0.78900
O172        O  0.24755090  0.71471935  0.27730233    -0.90500
O173        O  0.22653907  0.77720538  0.32924324    -0.76500
O174        O  0.25116194  0.79020893  0.28993978    -0.86000
O175        O  0.21818689  0.75640961  0.28573856    -0.85700
O176        O  0.27074091  0.77474289  0.24907061    -0.72400
O177        O  0.23965357  0.74364973  0.24507253    -0.84600
Zr178      Zr  0.20739116  0.80605267  0.23140759     2.26400
Zr179      Zr  0.26364721  0.81198735  0.25950528     2.06300
Zr180      Zr  0.20063579  0.74742040  0.25137483     2.10000
Zr181      Zr  0.21230944  0.79372805  0.29557373     1.78800
O182        O  0.19036209  0.72196674  0.22222067    -0.93400
O183        O  0.22439459  0.82530896  0.31693091    -0.41200
O184        O  0.19396050  0.78456327  0.26168896    -0.77800
O185        O  0.22461577  0.81634284  0.26563207    -0.96500
O186        O  0.24615170  0.80285157  0.22526300    -0.89800
O187        O  0.21334830  0.76906476  0.22098825    -0.92600
C188        C  0.24088627  0.76230659  0.33373829     1.01100
C189        C  0.23106431  0.70306977  0.27077308     1.14000
C190        C  0.30481081  0.78430131  0.28850492     1.04800
O191        O  0.26876910  0.84022850  0.28731209    -0.94800
O192        O  0.25449426  0.84686139  0.24164993    -0.90500
O193        O  0.22157046  0.84227553  0.22376698    -0.83700
C194        C  0.23852239  0.85375778  0.22922118     1.11500
O195        O  0.28051244  0.73757940  0.21104162    -0.96800
Zr196      Zr  0.25228049  0.76591685  0.21510749     1.88900
O197        O  0.21100815  0.80668106  0.19165290    -0.73400
O198        O  0.29608912  0.82264801  0.23817923    -0.52700
O199        O  0.28604812  0.78150338  0.19967735    -0.97400
O200        O  0.24051934  0.73721896  0.18971450    -0.54600
O201        O  0.24012664  0.78515217  0.18211537    -0.73900
C202        C  0.22449513  0.79868598  0.17747904     0.98400
O203        O  0.17881513  0.83431172  0.23452273    -0.62800
O204        O  0.17228811  0.73416115  0.27665487    -0.57600
O205        O  0.17052609  0.79375733  0.22136607    -0.94200
O206        O  0.16535165  0.75963113  0.23532485    -0.92700
O207        O  0.18005868  0.78041851  0.31563645    -0.93000
O208        O  0.18151672  0.81940711  0.29865545    -0.91800
C209        C  0.15845681  0.77684801  0.22506524     1.17300
H210        H  0.21343072  0.74649595  0.29724771     0.33200
H211        H  0.22130750  0.83145088  0.26889404     0.44000
H212        H  0.20504934  0.76554792  0.20775972     0.37600
H213        H  0.28647569  0.77236306  0.24718378     0.34100
H214        H  0.21407385  0.82593686  0.32959057     0.25800
H215        H  0.29086598  0.82287873  0.22263769     0.31800
H216        H  0.28565223  0.77757710  0.18382736     0.37700
H217        H  0.18100429  0.76427285  0.31482154     0.32100
H218        H  0.16253309  0.74695432  0.27919177     0.31000
H219        H  0.17707437  0.71431404  0.22790255     0.32700
H220        H  0.22620107  0.74229050  0.18340973     0.31700
H221        H  0.18224217  0.82843719  0.28506118     0.35700
H222        H  0.16740521  0.82801412  0.24438968     0.28400
H223        H  0.29135601  0.72517568  0.29680580     0.32600
H224        H  0.28406984  0.73723519  0.19508935     0.35500
H225        H  0.16313251  0.72404098  0.26770536     0.28100
H226        H  0.18553093  0.84611473  0.24349307     0.41000
H227        H  0.28236553  0.84806569  0.28270248     0.31000
H228        H  0.23877838  0.82084577  0.32356181     0.38600
H229        H  0.23648760  0.72475573  0.19939491     0.30500
H230        H  0.29860757  0.83822111  0.24187812     0.30600
H231        H  0.29697466  0.72866662  0.27164872     0.30800
Zr232      Zr  0.75859036  0.26427541  0.22617402     2.17500
O233        O  0.78688532  0.26345747  0.19748081    -0.51500
O234        O  0.75429874  0.22460201  0.22565358    -0.74700
O235        O  0.79528562  0.25523534  0.24046174    -0.81500
O236        O  0.71300083  0.27497068  0.18329773    -0.83300
O237        O  0.79972679  0.26897219  0.27493997    -0.78900
O238        O  0.74859790  0.26299720  0.18725106    -0.90500
O239        O  0.72948751  0.21485729  0.25188241    -0.76500
O240        O  0.75388586  0.25568376  0.26426966    -0.86000
O241        O  0.72021351  0.25600979  0.23018414    -0.85700
O242        O  0.77084842  0.29623351  0.24589313    -0.72400
O243        O  0.73921084  0.29682135  0.21481302    -0.84600
Zr244      Zr  0.70730529  0.31154363  0.27750027     2.26400
Zr245      Zr  0.76517076  0.28767595  0.28422267     2.06300
Zr246      Zr  0.70075421  0.28839947  0.21932646     2.10000
Zr247      Zr  0.71544100  0.24796579  0.26839744     1.78800
O248        O  0.68795427  0.31244366  0.18968200    -0.93400
O249        O  0.72929336  0.22601632  0.29923199    -0.41200
O250        O  0.69509622  0.27993847  0.25754889    -0.77800
O251        O  0.72669694  0.27923658  0.28930022    -0.96500
O252        O  0.74552928  0.31996173  0.27341523    -0.89800
O253        O  0.71194065  0.32024602  0.23938324    -0.92600
C254        C  0.74308231  0.21022274  0.23640055     1.01100
C255        C  0.73121959  0.26713901  0.17556072     1.14000
C256        C  0.80686713  0.25848296  0.25802647     1.04800
O257        O  0.77556757  0.26428616  0.31526010    -0.94800
O258        O  0.75474089  0.30507581  0.31916560    -0.90500
O259        O  0.72047838  0.31998651  0.31439361    -0.83700
C260        C  0.73787278  0.31604361  0.32610923     1.11500
O261        O  0.77831739  0.33115028  0.20663360    -0.96800
Zr262      Zr  0.75028317  0.32839380  0.23544484     1.88900
O263        O  0.70893309  0.35115741  0.27728980    -0.73400
O264        O  0.79441646  0.31425892  0.29133997    -0.52700
O265        O  0.78205903  0.34809519  0.25047976    -0.97400
O266        O  0.73836490  0.35109254  0.20431424    -0.54600
O267        O  0.73470833  0.36125244  0.25207382    -0.73900
C268        C  0.72008992  0.36569369  0.26680066     0.98400
O269        O  0.67892361  0.30622659  0.30570659    -0.62800
O270        O  0.67336853  0.26036645  0.21068134    -0.57600
O271        O  0.67037744  0.31991653  0.26423109    -0.94200
O272        O  0.66552584  0.30472607  0.23038733    -0.92700
O273        O  0.68251833  0.22867043  0.25546703    -0.93000
O274        O  0.68796264  0.24369016  0.29747789    -0.91800
C275        C  0.65842262  0.31530386  0.24726568     1.17300
H276        H  0.71567982  0.24395407  0.22092383     0.33200
H277        H  0.72380379  0.27636686  0.30472609     0.44000
H278        H  0.70289678  0.33265923  0.23515233     0.37600
H279        H  0.78640863  0.29879085  0.24309370     0.34100
H280        H  0.72061502  0.21228074  0.29858076     0.25800
H281        H  0.80358351  0.30750532  0.30317411     0.31800
H282        H  0.77961137  0.36354131  0.24607402     0.37700
H283        H  0.68284516  0.21446660  0.26339832     0.32100
H284        H  0.66407507  0.25929727  0.22408497     0.31000
H285        H  0.67442757  0.30528623  0.18380141     0.32700
H286        H  0.74531890  0.36552449  0.20697950     0.31700
H287        H  0.67848504  0.25688743  0.29622382     0.35700
H288        H  0.66738662  0.29700046  0.29869790     0.28400
H289        H  0.79400661  0.24887129  0.19860661     0.32600
H290        H  0.78385512  0.34638565  0.20714485     0.35500
H291        H  0.66353465  0.26719733  0.19943953     0.28100
H292        H  0.68579502  0.29638638  0.31685493     0.41000
H293        H  0.77287008  0.24921668  0.30995787     0.31000
H294        H  0.74447674  0.22163955  0.29486853     0.38600
H295        H  0.72231547  0.35365074  0.20662020     0.30500
H296        H  0.80395648  0.31386230  0.27807919     0.30600
H297        H  0.79842890  0.27399289  0.20221639     0.30800
Zr298      Zr  0.70626369  0.76180517  0.28107427     2.17500
O299        O  0.67787518  0.73345096  0.27867969    -0.51500
O300        O  0.70518707  0.76396655  0.32091052    -0.74700
O301        O  0.72067206  0.72561300  0.28972004    -0.81500
O302        O  0.66271890  0.80728010  0.27343459    -0.83300
O303        O  0.75443111  0.72167864  0.27354956    -0.78900
O304        O  0.66813484  0.77250577  0.28577976    -0.90500
O305        O  0.72928855  0.78993128  0.33230924    -0.76500
O306        O  0.74413865  0.76701823  0.29071182    -0.86000
O307        O  0.70916062  0.79958078  0.29009063    -0.85700
O308        O  0.72644755  0.75085499  0.24890993    -0.72400
O309        O  0.69398034  0.78153512  0.24895778    -0.84600
Zr310      Zr  0.75630626  0.81420776  0.23491562     2.26400
Zr311      Zr  0.76467579  0.75735923  0.25841676     2.06300
Zr312      Zr  0.69803183  0.81950743  0.25771940     2.10000
Zr313      Zr  0.74710140  0.80482968  0.29936118     1.78800
O314        O  0.66921257  0.82803590  0.23062561    -0.93400
O315        O  0.77671737  0.79174151  0.32364909    -0.41200
O316        O  0.73626334  0.82533338  0.26709302    -0.77800
O317        O  0.76853991  0.79521611  0.26748745    -0.96500
O318        O  0.75294898  0.77660050  0.22593390    -0.89800
O319        O  0.71827853  0.80915953  0.22556608    -0.92600
C320        C  0.71456751  0.77519415  0.33612886     1.01100
C321        C  0.65588385  0.78938684  0.28243832     1.14000
C322        C  0.73783820  0.71431039  0.28457455     1.04800
O323        O  0.79269522  0.75251226  0.28718835    -0.94800
O324        O  0.79934623  0.76876838  0.24069474    -0.90500
O325        O  0.79335146  0.80235046  0.22583309    -0.83700
C326        C  0.80583560  0.78579405  0.22990906     1.11500
O327        O  0.68461011  0.74505980  0.21395139    -0.96800
Zr328      Zr  0.71481947  0.77135420  0.21712066     1.88900
O329        O  0.75565434  0.81295241  0.19493784    -0.73400
O330        O  0.77889797  0.72860499  0.23454554    -0.52700
O331        O  0.72687823  0.73867117  0.19765480    -0.97400
O332        O  0.68440984  0.78380420  0.19341353    -0.54600
O333        O  0.73280712  0.78554846  0.18435201    -0.73900
C334        C  0.74675493  0.80082710  0.18011328     0.98400
O335        O  0.78451861  0.84258589  0.23947348    -0.62800
O336        O  0.68704981  0.84767018  0.28385420    -0.57600
O337        O  0.74280175  0.85036040  0.22657092    -0.94200
O338        O  0.70871213  0.85497147  0.24172237    -0.92700
O339        O  0.73400608  0.83809784  0.31711744    -0.93000
O340        O  0.77744516  0.83054279  0.30496465    -0.91800
C341        C  0.72565900  0.86194750  0.23087579     1.17300
H342        H  0.69962378  0.80344563  0.30226177     0.33200
H343        H  0.78395623  0.79854242  0.27043483     0.44000
H344        H  0.71402767  0.81814619  0.21305965     0.37600
H345        H  0.72398818  0.73554902  0.24592743     0.34100
H346        H  0.77351842  0.79836421  0.33820184     0.25800
H347        H  0.78681911  0.71832285  0.24453616     0.31800
H348        H  0.74264528  0.74143755  0.19406199     0.37700
H349        H  0.72076012  0.83356691  0.32558656     0.32100
H350        H  0.70083000  0.85598253  0.28686969     0.31000
H351        H  0.66444419  0.84311778  0.23419854     0.32700
H352        H  0.68563322  0.77479874  0.17990246     0.31700
H353        H  0.77743148  0.83971454  0.29143893     0.35700
H354        H  0.77761865  0.85392771  0.24885365     0.28400
H355        H  0.67839627  0.72553277  0.29299082     0.32600
H356        H  0.67747767  0.74502001  0.22865396     0.35500
H357        H  0.67763101  0.85787545  0.27515844     0.28100
H358        H  0.79603411  0.83605683  0.24921947     0.41000
H359        H  0.79513437  0.73651117  0.28807834     0.31000
H360        H  0.77366398  0.77595471  0.32574029     0.38600
H361        H  0.68861159  0.79870901  0.18855298     0.30500
H362        H  0.76556782  0.72050519  0.22955184     0.30600
H363        H  0.68340359  0.72285545  0.26765411     0.30800
C364        C  0.19951267  0.21341312  0.02337360     0.02900
C365        C  0.17951741  0.20172252  0.02390848    -0.13200
C366        C  0.16940314  0.19443213  0.00433112     0.00400
C367        C  0.17916309  0.20005252  0.98398094    -0.11700
C368        C  0.19889947  0.21239652  0.98319865     0.02900
C369        C  0.20896845  0.21903415  0.00304900    -0.11200
H370        H  0.17184887  0.19837322  0.03971458     0.08500
H371        H  0.17163829  0.19449570  0.96870115     0.06000
H372        H  0.22408172  0.22862848  0.00272117     0.05900
Zr373      Zr  0.21326406  0.24979182  0.77953242     2.17500
O374        O  0.18724047  0.25111286  0.81025612    -0.51500
O375        O  0.21562252  0.21030063  0.77770837    -0.74700
O376        O  0.17586988  0.24087218  0.76806340    -0.81500
O377        O  0.25977010  0.26083312  0.82122552    -0.83300
O378        O  0.17007085  0.25284463  0.73299918    -0.78900
O379        O  0.22671905  0.24346495  0.81659525    -0.90500
O380        O  0.24175069  0.20064274  0.75286779    -0.76500
O381        O  0.21764369  0.24003019  0.74188777    -0.86000
O382        O  0.25179258  0.24276962  0.77501862    -0.85700
O383        O  0.19907267  0.28061183  0.75919014    -0.72400
O384        O  0.23141544  0.28301354  0.79022285    -0.84600
Zr385      Zr  0.26122111  0.29750462  0.72653116     2.26400
Zr386      Zr  0.20439954  0.27085430  0.72124062     2.06300
Zr387      Zr  0.27013514  0.27591695  0.78504708     2.10000
Zr388      Zr  0.25631753  0.23393990  0.73709812     1.78800
O389        O  0.28008197  0.30334800  0.81241197    -0.93400
O390        O  0.24348064  0.21314565  0.70521058    -0.41200
O391        O  0.27533471  0.26683154  0.74694448    -0.77800
O392        O  0.24326184  0.26429737  0.71564336    -0.96500
O393        O  0.22266297  0.30427773  0.73091383    -0.89800
O394        O  0.25690137  0.30674936  0.76440421    -0.92600
C395        C  0.22688391  0.19595143  0.76712824     1.01100
C396        C  0.24344150  0.24922607  0.82838121     1.14000
C397        C  0.16363993  0.24321239  0.75082391     1.04800
O398        O  0.19610187  0.24296487  0.69380198    -0.94800
O399        O  0.21363539  0.28689820  0.68545124    -0.90500
O400        O  0.24630829  0.30502532  0.69007039    -0.83700
C401        C  0.22948852  0.29912468  0.67844311     1.11500
O402        O  0.18990026  0.31428198  0.79725661    -0.96800
Zr403      Zr  0.21831003  0.31350681  0.76871883     1.88900
O404        O  0.25891914  0.33688920  0.72745847    -0.73400
O405        O  0.17401962  0.29475013  0.70976258    -0.52700
O406        O  0.18582224  0.33225659  0.75364055    -0.97400
O407        O  0.22908462  0.33779509  0.79879015    -0.54600
O408        O  0.23271555  0.34680013  0.75208427    -0.73900
C409        C  0.24761321  0.35136470  0.73769210     0.98400
O410        O  0.28945423  0.29473339  0.69778950    -0.62800
O411        O  0.29976790  0.25071735  0.79557559    -0.57600
O412        O  0.29816540  0.30730296  0.73842834    -0.94200
O413        O  0.30481704  0.29253977  0.77237208    -0.92700
O414        O  0.28838234  0.21395961  0.75138507    -0.93000
O415        O  0.28606386  0.23065944  0.71018367    -0.91800
C416        C  0.31079533  0.30334033  0.75508353     1.17300
H417        H  0.25671963  0.23083551  0.78434696     0.33200
H418        H  0.24610536  0.26135868  0.70026154     0.44000
H419        H  0.26547670  0.31955834  0.76819211     0.37600
H420        H  0.18349418  0.28277149  0.76220503     0.34100
H421        H  0.25376234  0.20053133  0.70426724     0.25800
H422        H  0.16448773  0.28547936  0.70026898     0.31800
H423        H  0.18932004  0.33481129  0.73787216     0.37700
H424        H  0.28576901  0.19853044  0.74717950     0.32100
H425        H  0.30813097  0.24819576  0.78177353     0.31000
H426        H  0.29341209  0.29731570  0.81991736     0.32700
H427        H  0.24414100  0.34301011  0.79496951     0.31700
H428        H  0.28270251  0.24190579  0.69882109     0.35700
H429        H  0.30119369  0.28513661  0.70404143     0.28400
H430        H  0.17987273  0.23663867  0.81055938     0.32600
H431        H  0.18477744  0.32966753  0.79789059     0.35500
H432        H  0.30992029  0.25948834  0.80491625     0.28100
H433        H  0.28273400  0.28570732  0.68597516     0.41000
H434        H  0.21006589  0.24114757  0.68544993     0.31000
H435        H  0.22918808  0.20665518  0.70986395     0.38600
H436        H  0.23148287  0.32797323  0.81163893     0.30500
H437        H  0.16520580  0.29709122  0.72331174     0.30600
H438        H  0.17551457  0.26158255  0.80564970     0.30800
Zr439      Zr  0.19843853  0.79853354  0.78156684     2.17500
O440        O  0.16944365  0.79709822  0.80955276    -0.51500
O441        O  0.19648240  0.83797702  0.77866050    -0.74700
O442        O  0.21154192  0.80755368  0.81818581    -0.81500
O443        O  0.15600086  0.78800129  0.73568230    -0.83300
O444        O  0.24683444  0.79566106  0.82335331    -0.78900
O445        O  0.15995238  0.80025340  0.77092607    -0.90500
O446        O  0.22226605  0.84960578  0.75411301    -0.76500
O447        O  0.23583053  0.80979710  0.77710345    -0.86000
O448        O  0.20202365  0.80749575  0.74346649    -0.85700
O449        O  0.21983623  0.76764151  0.79379823    -0.72400
O450        O  0.18850956  0.76582942  0.76231439    -0.84600
Zr451      Zr  0.25232506  0.75496933  0.73066128     2.26400
Zr452      Zr  0.25755760  0.77894320  0.78845575     2.06300
Zr453      Zr  0.19262951  0.77485705  0.72403149     2.10000
Zr454      Zr  0.23985221  0.81773388  0.73881748     1.78800
O455        O  0.16708807  0.74535130  0.71496123    -0.93400
O456        O  0.27106963  0.83925551  0.75238186    -0.41200
O457        O  0.23049367  0.78557100  0.71850506    -0.77800
O458        O  0.26260948  0.78754037  0.75006387    -0.96500
O459        O  0.24870618  0.74617030  0.76874037    -0.89800
O460        O  0.21473002  0.74413100  0.73500837    -0.92600
C461        C  0.20673545  0.85302072  0.76803336     1.01100
C462        C  0.14824893  0.79588786  0.75378557     1.14000
C463        C  0.22909845  0.80527267  0.82998752     1.04800
O464        O  0.28483679  0.80729290  0.79621483    -0.94800
O465        O  0.29321265  0.76291249  0.77887068    -0.90500
O466        O  0.28849436  0.74618303  0.74565765    -0.83700
C467        C  0.30008240  0.75113051  0.76275762     1.11500
O468        O  0.18404743  0.72894224  0.80213749    -0.96800
Zr469      Zr  0.21121233  0.73529299  0.77308667     1.88900
O470        O  0.25226711  0.71541826  0.72989615    -0.73400
O471        O  0.26883763  0.75569493  0.81935656    -0.52700
O472        O  0.22813770  0.71546323  0.80392437    -0.97400
O473        O  0.17993835  0.71305240  0.76083724    -0.54600
O474        O  0.22821704  0.70346917  0.75584049    -0.73900
C475        C  0.24244504  0.70006384  0.74046715     0.98400
O476        O  0.28207135  0.76061057  0.70395206    -0.62800
O477        O  0.17809581  0.79927078  0.69546993    -0.57600
O478        O  0.24023829  0.74801282  0.69322935    -0.94200
O479        O  0.20531155  0.76148473  0.68824768    -0.92700
O480        O  0.22618987  0.83895661  0.70739457    -0.93000
O481        O  0.26689249  0.82398133  0.70971438    -0.91800
C482        C  0.22300990  0.75199216  0.68131041     1.17300
H483        H  0.19202881  0.81916984  0.73921502     0.33200
H484        H  0.27796951  0.79106106  0.74725019     0.44000
H485        H  0.21119808  0.73173970  0.72579472     0.37600
H486        H  0.21714630  0.76474054  0.80926558     0.34100
H487        H  0.26947412  0.85363258  0.74492379     0.25800
H488        H  0.27330625  0.74165727  0.81256825     0.31800
H489        H  0.24078247  0.70736760  0.79749191     0.37700
H490        H  0.20993798  0.83660244  0.70719328     0.32100
H491        H  0.19115741  0.80334336  0.68648978     0.31000
H492        H  0.16032336  0.74977936  0.70067779     0.32700
H493        H  0.18348394  0.70884482  0.74547643     0.31700
H494        H  0.27139247  0.80914810  0.70498718     0.35700
H495        H  0.27567441  0.77023249  0.69234753     0.28400
H496        H  0.16922196  0.81173181  0.81652882     0.32600
H497        H  0.18440439  0.71298576  0.80505416     0.35500
H498        H  0.16912510  0.78974684  0.68569673     0.28100
H499        H  0.29305841  0.77005792  0.71151442     0.41000
H500        H  0.29536636  0.80043307  0.80679542     0.31000
H501        H  0.26755328  0.84225081  0.76804352     0.38600
H502        H  0.16743679  0.72350386  0.75929680     0.30500
H503        H  0.28289505  0.76217814  0.82478509     0.30600
H504        H  0.17493117  0.78696926  0.82118308     0.30800
Zr505      Zr  0.76156402  0.25795139  0.77746506     2.17500
O506        O  0.79124653  0.25662444  0.80505913    -0.51500
O507        O  0.76002812  0.21827656  0.77549859    -0.74700
O508        O  0.74832428  0.25040491  0.81442060    -0.81500
O509        O  0.80477927  0.26868783  0.73269205    -0.83300
O510        O  0.71318958  0.26303670  0.81809018    -0.78900
O511        O  0.80018141  0.25493877  0.76736881    -0.90500
O512        O  0.73291275  0.20833124  0.75143543    -0.76500
O513        O  0.72343925  0.24931476  0.77234196    -0.86000
O514        O  0.75782463  0.24960725  0.73924112    -0.85700
O515        O  0.74205499  0.29006841  0.78939748    -0.72400
O516        O  0.77312142  0.29032961  0.75826481    -0.84600
Zr517      Zr  0.71034913  0.30532175  0.72560447     2.26400
Zr518      Zr  0.70361552  0.28144169  0.78331824     2.06300
Zr519      Zr  0.76866110  0.28209336  0.71980942     2.10000
Zr520      Zr  0.71951293  0.24157913  0.73402821     1.78800
O521        O  0.79838866  0.30645963  0.70820654    -0.93400
O522        O  0.68671678  0.22070185  0.74437744    -0.41200
O523        O  0.73034553  0.27357048  0.71375655    -0.77800
O524        O  0.69860090  0.27303600  0.74493524    -0.96500
O525        O  0.71432356  0.31371979  0.76371523    -0.89800
O526        O  0.74851545  0.31404008  0.73064207    -0.92600
C527        C  0.74804599  0.20386698  0.76571969     1.01100
C528        C  0.81214670  0.25986011  0.75062618     1.14000
C529        C  0.73061054  0.25331661  0.82568929     1.04800
O530        O  0.67292905  0.25764208  0.79347780    -0.94800
O531        O  0.66841213  0.29803289  0.77171429    -0.90500
O532        O  0.67343741  0.31425047  0.73817189    -0.83700
C533        C  0.66155518  0.30930558  0.75498216     1.11500
O534        O  0.78127801  0.32850406  0.79648756    -0.96800
Zr535      Zr  0.75244808  0.32208139  0.76881244     1.88900
O536        O  0.71048063  0.34492588  0.72687805    -0.73400
O537        O  0.69533028  0.30780855  0.81221498    -0.52700
O538        O  0.73846339  0.34152656  0.80095256    -0.97400
O539        O  0.78393970  0.34303740  0.75503777    -0.54600
O540        O  0.73476080  0.35470394  0.75374712    -0.73900
C541        C  0.72038952  0.35934816  0.73870428     0.98400
O542        O  0.68227229  0.29957566  0.69695310    -0.62800
O543        O  0.77779459  0.25491955  0.69191298    -0.57600
O544        O  0.72363281  0.31439998  0.68917037    -0.94200
O545        O  0.75783043  0.29934187  0.68468509    -0.92700
O546        O  0.73568403  0.22065261  0.70395728    -0.93000
O547        O  0.69224684  0.23752093  0.70444217    -0.91800
C548        C  0.74085455  0.31018101  0.67756113     1.17300
H549        H  0.76708199  0.23735961  0.73519698     0.33200
H550        H  0.68311628  0.27020497  0.74182353     0.44000
H551        H  0.75276750  0.32647958  0.72172429     0.37600
H552        H  0.74488700  0.29271820  0.80488297     0.34100
H553        H  0.68866102  0.20627302  0.73724182     0.25800
H554        H  0.68360695  0.30073512  0.82113939     0.31800
H555        H  0.72251761  0.34400677  0.79774998     0.37700
H556        H  0.73706355  0.23126101  0.69163113     0.32100
H557        H  0.78651382  0.26302166  0.68073980     0.31000
H558        H  0.80572161  0.29869526  0.69590183     0.32700
H559        H  0.77788175  0.35230932  0.74297585     0.31700
H560        H  0.69494799  0.25008000  0.69443851     0.35700
H561        H  0.68957685  0.29041866  0.68564785     0.28400
H562        H  0.79004284  0.24213607  0.81235018     0.32600
H563        H  0.78188957  0.34458234  0.79843534     0.35500
H564        H  0.78870568  0.24502874  0.69910880     0.28100
H565        H  0.67126145  0.28960208  0.70370714     0.41000
H566        H  0.66866321  0.25029606  0.77954002     0.31000
H567        H  0.68865930  0.21768109  0.76035934     0.38600
H568        H  0.79335416  0.33213090  0.74746214     0.30500
H569        H  0.70860246  0.30777057  0.82194233     0.30600
H570        H  0.78714175  0.26739946  0.81651749     0.30800
Zr571      Zr  0.74493081  0.80834967  0.78763297     2.17500
O572        O  0.74276052  0.83534082  0.81715205    -0.51500
O573        O  0.78490893  0.81236645  0.78366925    -0.74700
O574        O  0.75726520  0.79425435  0.82300766    -0.81500
O575        O  0.72516498  0.85097163  0.74553056    -0.83300
O576        O  0.74743862  0.75855241  0.82664822    -0.78900
O577        O  0.74275472  0.84689424  0.77867276    -0.90500
O578        O  0.79629220  0.78905382  0.75712686    -0.76500
O579        O  0.75813863  0.77240571  0.78057803    -0.86000
O580        O  0.75151027  0.80715464  0.74893399    -0.85700
O581        O  0.71611921  0.78444882  0.80051812    -0.72400
O582        O  0.70966771  0.81628816  0.77074699    -0.84600
Zr583      Zr  0.70047772  0.75451730  0.73633515     2.26400
Zr584      Zr  0.72914896  0.74827893  0.79217268     2.06300
Zr585      Zr  0.71639530  0.81445340  0.73183685     2.10000
Zr586      Zr  0.76408312  0.77096392  0.74185853     1.78800
O587        O  0.68636105  0.83877885  0.72046121    -0.93400
O588        O  0.78852654  0.74096780  0.75283664    -0.41200
O589        O  0.72939189  0.77835360  0.72372674    -0.77800
O590        O  0.73563092  0.74609219  0.75316179    -0.96500
O591        O  0.69407900  0.75555466  0.77500866    -0.89800
O592        O  0.68739749  0.79049107  0.74371982    -0.92600
C593        C  0.80015636  0.80340449  0.77199881     1.01100
C594        C  0.73476781  0.85862330  0.76288965     1.14000
C595        C  0.75644575  0.77621977  0.83383588     1.04800
O596        O  0.75898699  0.72197748  0.79827591    -0.94800
O597        O  0.71586543  0.71236196  0.78074439    -0.90500
O598        O  0.69689033  0.71689954  0.74844467    -0.83700
C599        C  0.70430615  0.70508357  0.76444313     1.11500
O600        O  0.67468689  0.81882049  0.81100923    -0.96800
Zr601      Zr  0.68129301  0.79144090  0.78255129     1.88900
O602        O  0.66059190  0.75099217  0.73973708    -0.73400
O603        O  0.70630240  0.73418762  0.82210591    -0.52700
O604        O  0.66855212  0.77306670  0.81596002    -0.97400
O605        O  0.65224668  0.81775781  0.77300511    -0.54600
O606        O  0.64970655  0.77019070  0.76990679    -0.73900
C607        C  0.64593356  0.75735779  0.75360394     0.98400
O608        O  0.70568242  0.72770213  0.70689049    -0.62800
O609        O  0.74182302  0.83044712  0.70510971    -0.57600
O610        O  0.68935048  0.76794848  0.70026972    -0.94200
O611        O  0.70168523  0.80275062  0.69612934    -0.92700
O612        O  0.78277868  0.78888587  0.71116265    -0.93000
O613        O  0.77127579  0.74645176  0.71106804    -0.91800
C614        C  0.69240408  0.78532229  0.68869735     1.17300
H615        H  0.76236366  0.81792158  0.74451219     0.33200
H616        H  0.74014875  0.73146652  0.74921528     0.44000
H617        H  0.67384525  0.79351664  0.73561121     0.37600
H618        H  0.71414146  0.78614115  0.81624331     0.34100
H619        H  0.80225435  0.74324674  0.74420887     0.25800
H620        H  0.71594899  0.72349009  0.82990124     0.31800
H621        H  0.65215786  0.77417060  0.81536649     0.37700
H622        H  0.77119035  0.79051730  0.69960603     0.32100
H623        H  0.74226705  0.81991285  0.69273881     0.31000
H624        H  0.67472607  0.83665551  0.73174212     0.32700
H625        H  0.64668081  0.81326433  0.75828844     0.31700
H626        H  0.75646670  0.74081935  0.70680062     0.35700
H627        H  0.71334320  0.73557935  0.69481457     0.28400
H628        H  0.75782642  0.83609440  0.82374966     0.32600
H629        H  0.65952918  0.81593206  0.81655738     0.35500
H630        H  0.73373896  0.84327352  0.69904583     0.28100
H631        H  0.71714018  0.71741383  0.71248971     0.41000
H632        H  0.76230485  0.71610682  0.78343042     0.31000
H633        H  0.79290400  0.74431304  0.76825252     0.38600
H634        H  0.66021659  0.83164770  0.77022061     0.30500
H635        H  0.70480618  0.74651087  0.83256602     0.30600
H636        H  0.73332651  0.82867980  0.82871277     0.30800
C637        C  0.49179884  0.70648154  0.71681796     0.02900
C638        C  0.49030606  0.69300385  0.69811097    -0.13200
C639        C  0.46953243  0.68650493  0.68969145     0.00400
C640        C  0.45019517  0.69317713  0.70064847    -0.11700
C641        C  0.45160050  0.70633969  0.71951561     0.02900
C642        C  0.47232897  0.71288151  0.72759944    -0.11200
H643        H  0.50536899  0.68774494  0.68998175     0.08500
H644        H  0.43402981  0.68844691  0.69433856     0.06000
H645        H  0.47325961  0.72301636  0.74223443     0.05900
C646        C  0.28485513  0.50694737  0.69912727     0.02900
C647        C  0.30173271  0.50715321  0.68326970    -0.13200
C648        C  0.30902957  0.52686172  0.67399057     0.00400
C649        C  0.29907176  0.54656414  0.68040829    -0.11700
C650        C  0.28242084  0.54659245  0.69653051     0.02900
C651        C  0.27524621  0.52675823  0.70577536    -0.11200
H652        H  0.30912952  0.49186686  0.67798796     0.08500
H653        H  0.30476811  0.56191101  0.67342248     0.06000
H654        H  0.26249577  0.52680031  0.71833724     0.05900
C655        C  0.50544789  0.34686918  0.71368423     0.02900
C656        C  0.48516039  0.34011339  0.72255921    -0.13200
C657        C  0.46514859  0.34609692  0.71218619     0.00400
C658        C  0.46565877  0.35870144  0.69270036    -0.11700
C659        C  0.48592835  0.36599624  0.68392812     0.02900
C660        C  0.50577794  0.35993716  0.69462112    -0.11200
H661        H  0.48497602  0.32994045  0.73727277     0.08500
H662        H  0.45021413  0.36278937  0.68438929     0.06000
H663        H  0.52158893  0.36536434  0.68813837     0.05900
C664        C  0.67395836  0.51513450  0.70793999     0.02900
C665        C  0.65738599  0.51678053  0.69169237    -0.13200
C666        C  0.64679828  0.53676920  0.68716029     0.00400
C667        C  0.65293694  0.55529523  0.69939560    -0.11700
C668        C  0.66980837  0.55392338  0.71542962     0.02900
C669        C  0.68014921  0.53381692  0.71985647    -0.11200
H670        H  0.65269763  0.50229902  0.68252468     0.08500
H671        H  0.64468241  0.57082051  0.69653538     0.06000
H672        H  0.69313684  0.53279201  0.73228959     0.05900
C673        C  0.50148849  0.35034120  0.28739189     0.02900
C674        C  0.48128449  0.34523814  0.27698893    -0.13200
C675        C  0.46136867  0.35417982  0.28481457     0.00400
C676        C  0.46172239  0.36852500  0.30283496    -0.11700
C677        C  0.48182129  0.37375530  0.31337347     0.02900
C678        C  0.50156667  0.36439065  0.30567324    -0.11200
H679        H  0.48102663  0.33428092  0.26295120     0.08500
H680        H  0.44629871  0.37552203  0.30868880     0.06000
H681        H  0.51715008  0.36824234  0.31378518     0.05900
C682        C  0.69165128  0.52072138  0.31403628     0.02900
C683        C  0.70221254  0.54045527  0.30859345    -0.13200
C684        C  0.69486561  0.56016588  0.31792119     0.00400
C685        C  0.67706244  0.56002074  0.33278844    -0.11700
C686        C  0.66652587  0.54029188  0.33833741     0.02900
C687        C  0.67391453  0.52074022  0.32886771    -0.11200
H688        H  0.71580205  0.54052510  0.29693376     0.08500
H689        H  0.67148880  0.57523829  0.34005791     0.06000
H690        H  0.66574010  0.50545677  0.33293634     0.05900
C691        C  0.50167207  0.74985774  0.33063917     0.02900
C692        C  0.48138234  0.76061103  0.32665173    -0.13200
C693        C  0.46150742  0.75202177  0.33514043     0.00400
C694        C  0.46212762  0.73256173  0.34752655    -0.11700
C695        C  0.48224044  0.72170208  0.35169334     0.02900
C696        C  0.50198374  0.73056363  0.34335530    -0.11200
H697        H  0.48102924  0.77542759  0.31675244     0.08500
H698        H  0.44676648  0.72549076  0.35345618     0.06000
H699        H  0.51767752  0.72254021  0.34688004     0.05900
C700        C  0.27882761  0.51183907  0.31261388     0.02900
C701        C  0.26752040  0.53044741  0.30482164    -0.13200
C702        C  0.27442936  0.55142439  0.31136687     0.00400
C703        C  0.29329907  0.55353944  0.32501885    -0.11700
C704        C  0.30452911  0.53496912  0.33302339     0.02900
C705        C  0.29704357  0.51418860  0.32681852    -0.11200
H706        H  0.25319818  0.52856724  0.29408074     0.08500
H707        H  0.29931337  0.56968493  0.32929866     0.06000
H708        H  0.30548217  0.49969416  0.33299121     0.05900
C709        C  0.66204768  0.74409042  0.49113578     0.02900
C710        C  0.66844950  0.75327105  0.51149536    -0.13200
C711        C  0.66123436  0.74382802  0.53144044     0.00400
C712        C  0.64744695  0.72533682  0.53082055    -0.11700
C713        C  0.64103195  0.71611511  0.51065432     0.02900
C714        C  0.64814350  0.72569266  0.49088840    -0.11200
H715        H  0.67922274  0.76745153  0.51181299     0.08500
H716        H  0.64149563  0.71819802  0.54610831     0.06000
H717        H  0.64337597  0.71840570  0.47526135     0.05900
C718        C  0.70593896  0.35835076  0.48244222     0.02900
C719        C  0.68674022  0.37149288  0.48219211    -0.13200
C720        C  0.67618499  0.37720949  0.50198609     0.00400
C721        C  0.68474520  0.36928595  0.52206566    -0.11700
C722        C  0.70394934  0.35627918  0.52262799     0.02900
C723        C  0.71474490  0.35117860  0.50279309    -0.11200
H724        H  0.68005000  0.37730397  0.46656628     0.08500
H725        H  0.67644093  0.37329071  0.53737748     0.06000
H726        H  0.72979612  0.34146102  0.50320989     0.05900
C727        C  0.27026284  0.70925911  0.48910609     0.02900
C728        C  0.26083196  0.71756028  0.50844078    -0.13200
C729        C  0.26844039  0.71039933  0.52919559     0.00400
C730        C  0.28610515  0.69532921  0.53044097    -0.11700
C731        C  0.29595639  0.68731383  0.51113009     0.02900
C732        C  0.28755967  0.69399041  0.49052695    -0.11200
H733        H  0.24774957  0.72971948  0.50730915     0.08500
H734        H  0.29237045  0.69008135  0.54643429     0.06000
H735        H  0.29488443  0.68772262  0.47549824     0.05900
C736        C  0.27578297  0.34011626  0.48600176     0.02900
C737        C  0.29381547  0.35472612  0.48669056    -0.13200
C738        C  0.30244140  0.36231421  0.50690589     0.00400
C739        C  0.29230189  0.35549087  0.52664490    -0.11700
C740        C  0.27387471  0.34144404  0.52613768     0.02900
C741        C  0.26572919  0.33375632  0.50587262    -0.11200
H742        H  0.30111646  0.36033261  0.47136007     0.08500
H743        H  0.29890083  0.36074759  0.54244140     0.06000
H744        H  0.25177713  0.32257642  0.50564752     0.05900
O745        O  0.91988121  0.99718952  0.00556858    -0.86700
O746        O  0.04574623  0.00243065  0.00425534    -0.86900
O747        O  0.98519621  0.97422679  0.96906348    -0.88500
O748        O  0.98300393  0.97154064  0.04023906    -0.87300
O749        O  0.98172213  0.99638720  0.06848373    -0.86900
O750        O  0.98337368  0.00182316  0.94327234    -0.88200
O751        O  0.02021225  0.97453730  0.00531302    -0.86700
O752        O  0.94779441  0.97161311  0.00443918    -0.86300
Zr753      Zr  0.98314897  0.99090219  0.00541788     2.84300
O754        O  0.00475009  0.01261232  0.02885653    -1.08300
O755        O  0.95946501  0.01251441  0.98374799    -1.09000
C756        C  0.92712191  0.97727488  0.00485864     1.06400
C757        C  0.04022115  0.98205775  0.00418442     1.06400
C758        C  0.98508623  0.98153592  0.94902671     1.09300
C759        C  0.98245558  0.97661050  0.06086369     1.07100
H760        H  0.01410933  0.00627534  0.97470794     0.32700
O761        O  0.00445111  0.01463712  0.98417695    -1.29200
H762        H  0.95087076  0.00147382  0.03716273     0.32400
O763        O  0.95987191  0.01122250  0.02839262    -1.30900
O764        O  0.04289743  0.07267543  0.00743600    -0.86700
O765        O  0.91723381  0.06825766  0.00724086    -0.88200
O766        O  0.01690501  0.03792955  0.94503522    -0.86800
O767        O  0.01768405  0.03118835  0.07000750    -0.86800
O768        O  0.94544764  0.03144590  0.06949297    -0.86500
O769        O  0.94473430  0.03327089  0.94431987    -0.86300
O770        O  0.98001676  0.09857985  0.97208424    -0.86700
O771        O  0.97910049  0.09580806  0.04527279    -0.86200
O772        O  0.97964820  0.07194894  0.94539505    -0.87200
O773        O  0.98056090  0.06793465  0.07085861    -0.86400
O774        O  0.04386141  0.03861613  0.97207848    -0.86800
O775        O  0.91795155  0.03190083  0.97098652    -0.86500
O776        O  0.91879867  0.03190146  0.04232716    -0.86200
O777        O  0.04425830  0.03261432  0.04297997    -0.86600
O778        O  0.01578230  0.09893867  0.00748888    -0.86900
O779        O  0.94261451  0.09622806  0.00812035    -0.88200
Zr780      Zr  0.02567457  0.03673421  0.00746368     2.83100
Zr781      Zr  0.93682748  0.03343283  0.00665411     2.83500
Zr782      Zr  0.98085779  0.03637237  0.96271670     2.84100
Zr783      Zr  0.98152291  0.03307666  0.05162599     2.83400
Zr784      Zr  0.97982982  0.07974842  0.00823851     2.84200
O785        O  0.95854181  0.05553139  0.02972454    -1.08800
O786        O  0.00260783  0.05869057  0.98550712    -1.08300
C787        C  0.03639073  0.09282849  0.00694510     1.06400
C788        C  0.92250050  0.08874635  0.00762224     1.09000
C789        C  0.03724768  0.03834939  0.95181862     1.06600
C790        C  0.03798088  0.03070385  0.06323652     1.06900
C791        C  0.92506879  0.03130816  0.06274839     1.06500
C792        C  0.92430548  0.03173295  0.95064529     1.06100
C793        C  0.97967916  0.09205616  0.95170893     1.06500
C794        C  0.97964286  0.08837767  0.06534515     1.06000
H795        H  0.94822415  0.06633907  0.97602999     0.32700
O796        O  0.95790298  0.05748294  0.98517644    -1.29900
H797        H  0.01214985  0.06636825  0.04003152     0.32700
O798        O  0.00297835  0.05748725  0.03049324    -1.31300
O799        O  0.47811708  0.58818696  0.54245601    -0.86700
O800        O  0.48828775  0.46413726  0.53407931    -0.86900
O801        O  0.44770841  0.52288695  0.56409606    -0.88500
O802        O  0.51886594  0.52799280  0.56530196    -0.87300
O803        O  0.54650878  0.53061598  0.53951647    -0.86900
O804        O  0.42081572  0.52379067  0.53709561    -0.88200
O805        O  0.48774826  0.48931810  0.56210365    -0.86700
O806        O  0.47940380  0.55969114  0.56700817    -0.86300
Zr807      Zr  0.48342509  0.52578754  0.54634426     2.84300
O808        O  0.50704703  0.50638503  0.52319754    -1.08300
O809        O  0.45983514  0.54800594  0.52537183    -1.09000
C810        C  0.47765978  0.58024759  0.56230228     1.06400
C811        C  0.48920657  0.46957405  0.55470433     1.06400
C812        C  0.42733067  0.52278221  0.55747393     1.09300
C813        C  0.53939681  0.52968069  0.55961490     1.07100
H814        H  0.45350777  0.49373872  0.53138174     0.32700
O815        O  0.46220538  0.50385788  0.52271914    -1.29200
H816        H  0.51315373  0.55993508  0.53661993     0.32400
O817        O  0.50472162  0.55090575  0.52658178    -1.30900
O818        O  0.48581133  0.46972640  0.46170366    -0.86700
O819        O  0.48237837  0.59341030  0.47078418    -0.88200
O820        O  0.42231232  0.49015531  0.49947260    -0.86800
O821        O  0.54820107  0.49672273  0.50231999    -0.86800
O822        O  0.54452758  0.56806086  0.50544346    -0.86500
O823        O  0.41873398  0.56070421  0.50404787    -0.86300
O824        O  0.44876530  0.53252886  0.43867317    -0.86700
O825        O  0.52087008  0.53377931  0.44041177    -0.86200
O826        O  0.42166894  0.52763240  0.46475486    -0.87200
O827        O  0.54722272  0.53436185  0.46795857    -0.86400
O828        O  0.45036056  0.46473235  0.49904128    -0.86800
O829        O  0.44386167  0.58879775  0.50648236    -0.86500
O830        O  0.51591184  0.59277275  0.50770116    -0.86200
O831        O  0.52298264  0.46856649  0.50009160    -0.86600
O832        O  0.48420864  0.49840007  0.43710519    -0.86900
O833        O  0.48407276  0.56903063  0.44205776    -0.88200
Zr834      Zr  0.48587770  0.48455692  0.49927202     2.83100
Zr835      Zr  0.48104091  0.57294612  0.50532081     2.83500
Zr836      Zr  0.43905787  0.52638074  0.50124292     2.84100
Zr837      Zr  0.52840636  0.53142686  0.50327131     2.83400
Zr838      Zr  0.48439675  0.53224770  0.45787820     2.84200
O839        O  0.50518096  0.55395375  0.48200717    -1.08800
O840        O  0.46283950  0.50720908  0.47786708    -1.08300
C841        C  0.48462592  0.47783306  0.44192551     1.06400
C842        C  0.48359990  0.58859296  0.45006722     1.09000
C843        C  0.42957066  0.47023863  0.49926735     1.06600
C844        C  0.54291909  0.47627813  0.50118180     1.06900
C845        C  0.53672221  0.58769948  0.50731347     1.06500
C846        C  0.42387414  0.58112698  0.50602399     1.06100
C847        C  0.42835800  0.53019113  0.44466145     1.06500
C848        C  0.54116541  0.53447978  0.44745900     1.06000
H849        H  0.45057448  0.56086280  0.47213580     0.32700
O850        O  0.46016894  0.55153291  0.48089464    -1.29900
H851        H  0.51737445  0.50138503  0.46947617     0.32700
O852        O  0.50758816  0.50945033  0.47906265    -1.31300
C853        C  0.32235228  0.37687801  0.50706529    -0.20100
C854        C  0.32317155  0.39623478  0.51972158     0.36100
C855        C  0.34178891  0.41001463  0.51841155    -0.26000
C856        C  0.35957269  0.40510161  0.50439355     0.02600
C857        C  0.35894767  0.38578515  0.49178024     0.27400
C858        C  0.34050480  0.37174573  0.49345479    -0.25200
N859        N  0.30475753  0.40250489  0.53317305    -0.82600
H860        H  0.34210690  0.42498406  0.52795486     0.13200
C861        C  0.37794520  0.42114762  0.50201127     0.02600
N862        N  0.37676886  0.38080887  0.47691625    -0.81100
H863        H  0.34011832  0.35687203  0.48377566     0.18000
C864        C  0.39898016  0.41653561  0.51095862    -0.26000
C865        C  0.41622719  0.43212203  0.51010764     0.36100
C866        C  0.41245404  0.45259040  0.49965138    -0.20000
C867        C  0.39141215  0.45684963  0.49036529    -0.25200
C868        C  0.37422915  0.44134282  0.49133019     0.27400
H869        H  0.40170819  0.40099075  0.51922704     0.13200
N870        N  0.43715723  0.42758769  0.52067310    -0.82500
H871        H  0.38829338  0.47241857  0.48234324     0.18000
N872        N  0.35291228  0.44602331  0.48158144    -0.81100
H873        H  0.43724729  0.41185529  0.52753644     0.33700
H874        H  0.43870562  0.43848496  0.53386267     0.38200
H875        H  0.35279708  0.46163112  0.47443421     0.33600
H876        H  0.35042388  0.43491478  0.46870788     0.30300
H877        H  0.37377303  0.36600960  0.46882281     0.33600
H878        H  0.37692336  0.39295480  0.46469289     0.30300
H879        H  0.31046935  0.40417800  0.54942693     0.38200
H880        H  0.29913617  0.41781702  0.52774275     0.33700
C881        C  0.31528122  0.67226709  0.51224660    -0.20100
C882        C  0.33472118  0.67662996  0.50003032     0.36100
C883        C  0.35192113  0.66114008  0.49982739    -0.26000
C884        C  0.35024505  0.64160577  0.51183502     0.02600
C885        C  0.33136218  0.63761283  0.52490713     0.27400
C886        C  0.31401580  0.65305795  0.52501039    -0.25200
N887        N  0.33694363  0.69683456  0.48798336    -0.82600
H888        H  0.36669891  0.66421684  0.49016658     0.13200
C889        C  0.36861935  0.62562815  0.51046799     0.02600
N890        N  0.32998617  0.61803228  0.53808414    -0.81100
H891        H  0.29921781  0.64984548  0.53458540     0.18000
C892        C  0.38842444  0.63023596  0.52178177    -0.26000
C893        C  0.40676750  0.61605998  0.52060531     0.36100
C894        C  0.40520976  0.59684391  0.50775158    -0.20000
C895        C  0.38532002  0.59231547  0.49643877    -0.25200
C896        C  0.36716412  0.60660694  0.49727651     0.27400
H897        H  0.38950467  0.64497005  0.53164168     0.13200
N898        N  0.42674536  0.62093704  0.53271473    -0.82500
H899        H  0.38400882  0.57774309  0.48636091     0.18000
N900        N  0.34779919  0.60137409  0.48430593    -0.81100
H901        H  0.42521794  0.63580346  0.54107307     0.33700
H902        H  0.42871376  0.60882214  0.54482336     0.38200
H903        H  0.35250662  0.60137309  0.46769923     0.33600
H904        H  0.33543704  0.61324681  0.48572486     0.30300
H905        H  0.31527743  0.61789429  0.54717935     0.33600
H906        H  0.32912905  0.60470578  0.52735199     0.30300
H907        H  0.33705311  0.70955127  0.49949005     0.38200
H908        H  0.35218357  0.69743287  0.47981531     0.33700
C909        C  0.65605718  0.39127482  0.50183073    -0.20100
C910        C  0.65477229  0.41014422  0.51520777     0.36100
C911        C  0.63510222  0.42250682  0.51539007    -0.26000
C912        C  0.61697003  0.41668349  0.50211467     0.02600
C913        C  0.61833609  0.39824822  0.48831058     0.27400
C914        C  0.63787344  0.38561269  0.48838343    -0.25200
N915        N  0.67362196  0.41694370  0.52813358    -0.82600
H916        H  0.63402784  0.43703791  0.52554373     0.13200
C917        C  0.59732638  0.43112667  0.50160950     0.02600
N918        N  0.60008554  0.39278046  0.47395689    -0.81100
H919        H  0.63889132  0.37121794  0.47804136     0.18000
C920        C  0.59706000  0.44869610  0.48669182    -0.26000
C921        C  0.57920674  0.46344440  0.48610238     0.36100
C922        C  0.56137024  0.46049892  0.50080209    -0.20000
C923        C  0.56145855  0.44270342  0.51554835    -0.25200
C924        C  0.57944205  0.42799630  0.51620183     0.27400
H925        H  0.61091731  0.45092792  0.47556421     0.13200
N926        N  0.57899597  0.48132027  0.47055634    -0.82500
H927        H  0.54774551  0.44061738  0.52688664     0.18000
N928        N  0.57992468  0.41029672  0.53192583    -0.81100
H929        H  0.59337351  0.48119138  0.46095602     0.33700
H930        H  0.56565693  0.47888370  0.45970770     0.38200
H931        H  0.56568140  0.41055404  0.54172397     0.33600
H932        H  0.57947381  0.39563583  0.52310902     0.30300
H933        H  0.60390244  0.37897336  0.46455647     0.33600
H934        H  0.58659604  0.38851393  0.48385749     0.30300
H935        H  0.68631909  0.42101829  0.51715261     0.38200
H936        H  0.66994710  0.43115108  0.53697267     0.33700
C937        C  0.62669100  0.69652726  0.51023549    -0.20100
C938        C  0.63314653  0.67696783  0.52090049     0.36100
C939        C  0.61883113  0.65888540  0.52070874    -0.26000
C940        C  0.59820164  0.66007005  0.50992203     0.02600
C941        C  0.59188939  0.67945663  0.49884084     0.27400
C942        C  0.60623068  0.69754287  0.49910739    -0.25200
N943        N  0.65440468  0.67532291  0.53152094    -0.82600
H944        H  0.62378567  0.64389901  0.52902911     0.13200
C945        C  0.58325446  0.64092354  0.51016878     0.02600
N946        N  0.57095036  0.68061427  0.48736625    -0.81100
H947        H  0.60137169  0.71257000  0.49081223     0.18000
C948        C  0.56328738  0.64222123  0.52183016    -0.26000
C949        C  0.54804237  0.62487176  0.52155936     0.36100
C950        C  0.55284895  0.60589890  0.50910443    -0.20000
C951        C  0.57315053  0.60448899  0.49784568    -0.25200
C952        C  0.58836051  0.62190477  0.49815853     0.27400
H953        H  0.55960375  0.65689698  0.53112693     0.13200
N954        N  0.52782478  0.62640978  0.53401103    -0.82500
H955        H  0.57687919  0.59002018  0.48825103     0.18000
N956        N  0.60875204  0.62058470  0.48599587    -0.81100
H957        H  0.52680545  0.64147753  0.54207257     0.33700
H958        H  0.52840754  0.61439666  0.54636057     0.38200
H959        H  0.61000013  0.60549720  0.47800555     0.33600
H960        H  0.60818345  0.63254672  0.47359722     0.30300
H961        H  0.56878256  0.69603622  0.48011529     0.33600
H962        H  0.57144159  0.66933041  0.47443369     0.30300
H963        H  0.65186967  0.67127760  0.54811834     0.38200
H964        H  0.66314812  0.66248835  0.52419258     0.33700
C965        C  0.32409003  0.53687182  0.34792375    -0.20100
C966        C  0.32347928  0.54967898  0.36731955     0.36100
C967        C  0.34180849  0.54942817  0.38181637    -0.26000
C968        C  0.36045495  0.53645996  0.37740979     0.02600
C969        C  0.36134304  0.52408517  0.35790246     0.27400
C970        C  0.34317262  0.52446227  0.34329763    -0.25200
N971        N  0.30402779  0.56223568  0.37261830    -0.82600
H972        H  0.34130330  0.55879634  0.39697419     0.13200
C973        C  0.37830578  0.53476363  0.39411977     0.02600
N974        N  0.38045503  0.51075080  0.35335734    -0.81100
H975        H  0.34374547  0.51477020  0.32835487     0.18000
C976        C  0.37745531  0.51774651  0.40965843    -0.26000
C977        C  0.39371195  0.51576072  0.42627056     0.36100
C978        C  0.41123126  0.53108743  0.42713418    -0.20000
C979        C  0.41237889  0.54774218  0.41110095    -0.25200
C980        C  0.39595841  0.54980472  0.39462809     0.27400
H981        H  0.36390994  0.50611019  0.40890597     0.13200
N982        N  0.39284612  0.49788872  0.44176958    -0.82500
H983        H  0.42587946  0.55943643  0.41173165     0.18000
N984        N  0.39690286  0.56724922  0.37865120    -0.81100
H985        H  0.38006615  0.48708228  0.43758333     0.33700
H986        H  0.38858877  0.50437547  0.45711851     0.38200
H987        H  0.41083420  0.57705939  0.38147724     0.33600
H988        H  0.39901382  0.56021338  0.36308867     0.30300
H989        H  0.37833587  0.50235690  0.33847449     0.33600
H990        H  0.39399629  0.52119769  0.35116647     0.30300
H991        H  0.30634891  0.57075065  0.38740115     0.38200
H992        H  0.29101569  0.55124904  0.37528454     0.33700
C993        C  0.48240139  0.70118913  0.36495107    -0.20100
C994        C  0.49309293  0.68200453  0.35745153     0.36100
C995        C  0.49282071  0.66304288  0.37071321    -0.26000
C996        C  0.48199734  0.66292245  0.39114277     0.02600
C997        C  0.47095997  0.68185173  0.39845396     0.27400
C998        C  0.47129073  0.70081868  0.38530216    -0.25200
N999        N  0.50398164  0.68179394  0.33637311    -0.82600
H1000       H  0.50121192  0.64834995  0.36523315     0.13200
C1001       C  0.48309049  0.64319638  0.40530888     0.02600
N1002       N  0.45963587  0.68171590  0.41930750    -0.81100
H1003       H  0.46304578  0.71548669  0.39105723     0.18000
C1004       C  0.49683440  0.64351850  0.42405100    -0.26000
C1005       C  0.49769158  0.62560255  0.43861306     0.36100
C1006       C  0.48438889  0.60706814  0.43431281    -0.20000
C1007       C  0.47112575  0.60650538  0.41516240    -0.25200
C1008       C  0.47014258  0.62456377  0.40070734     0.27400
H1009       H  0.50682252  0.65789166  0.42734720     0.13200
N1010       N  0.51207625  0.62609372  0.45766636    -0.82500
H1011       H  0.46091946  0.59226864  0.41192094     0.18000
N1012       N  0.45574901  0.62428333  0.38168093    -0.81100
H1013       H  0.52065041  0.64094047  0.45845353     0.33700
H1014       H  0.52404893  0.61385290  0.45570100     0.38200
H1015       H  0.44735844  0.60934699  0.38067333     0.33600
H1016       H  0.44362702  0.63632539  0.38394004     0.30300
H1017       H  0.45247594  0.69699587  0.42237126     0.33600
H1018       H  0.44656122  0.67053671  0.41811970     0.30300
H1019       H  0.49183583  0.68420870  0.32419065     0.38200
H1020       H  0.51109083  0.66647187  0.33340312     0.33700
C1021       C  0.64802264  0.53978644  0.35430941    -0.20100
C1022       C  0.62875415  0.55252042  0.35108234     0.36100
C1023       C  0.61152941  0.55146655  0.36654888    -0.26000
C1024       C  0.61312676  0.53760727  0.38499843     0.02600
C1025       C  0.63202823  0.52425660  0.38792513     0.27400
C1026       C  0.64940178  0.52562642  0.37260557    -0.25200
N1027       N  0.62634943  0.56597082  0.33177456    -0.82600
H1028       H  0.59676448  0.56136031  0.36407231     0.13200
C1029       C  0.59470016  0.53703567  0.40095141     0.02600
N1030       N  0.63316245  0.50887678  0.40596044    -0.81100
H1031       H  0.66408367  0.51557333  0.37488373     0.18000
C1032       C  0.57617818  0.52388821  0.39650542    -0.26000
C1033       C  0.55832309  0.52286721  0.41134507     0.36100
C1034       C  0.55910685  0.53539989  0.43091333    -0.20000
C1035       C  0.57767732  0.54863291  0.43519847    -0.25200
C1036       C  0.59542363  0.54972876  0.42030854     0.27400
H1037       H  0.57579376  0.51426530  0.38150332     0.13200
N1038       N  0.53969875  0.50883933  0.40685383    -0.82500
H1039       H  0.57820270  0.55837176  0.45012238     0.18000
N1040       N  0.61382439  0.56416333  0.42441499    -0.81100
H1041       H  0.54170079  0.50086837  0.39173608     0.33700
H1042       H  0.53950159  0.49664298  0.41902645     0.38200
H1043       H  0.61144969  0.57281994  0.43908577     0.33600
H1044       H  0.62804737  0.55463622  0.42680445     0.30300
H1045       H  0.64792022  0.49987022  0.40532926     0.33600
H1046       H  0.63367241  0.51765614  0.42071652     0.30300
H1047       H  0.62370003  0.58208032  0.33688811     0.38200
H1048       H  0.61219789  0.56081763  0.32317741     0.33700
C1049       C  0.48219438  0.38885926  0.33253310    -0.20100
C1050       C  0.49744807  0.40640443  0.33370750     0.36100
C1051       C  0.49758213  0.41995928  0.35238074    -0.26000
C1052       C  0.48248644  0.41666799  0.36955967     0.02600
C1053       C  0.46701658  0.39947675  0.36835013     0.27400
C1054       C  0.46707614  0.38564488  0.34985951    -0.25200
N1055       N  0.51238005  0.41069551  0.31575027    -0.82600
H1056       H  0.50923278  0.43342091  0.35341499     0.13200
C1057       C  0.48272885  0.43186104  0.38843799     0.02600
N1058       N  0.45121534  0.39632694  0.38578833    -0.81100
H1059       H  0.45541237  0.37218654  0.34903617     0.18000
C1060       C  0.46869014  0.45012506  0.38795861    -0.26000
C1061       C  0.46913009  0.46556589  0.40509146     0.36100
C1062       C  0.48373945  0.46232062  0.42324902    -0.20000
C1063       C  0.49754696  0.44378842  0.42375909    -0.25200
C1064       C  0.49730351  0.42858917  0.40640640     0.27400
H1065       H  0.45756414  0.45244562  0.37399898     0.13200
N1066       N  0.45431083  0.48405232  0.40439798    -0.82500
H1067       H  0.50878946  0.44134954  0.43760080     0.18000
N1068       N  0.51197130  0.41001137  0.40676088    -0.81100
H1069       H  0.44328704  0.48276707  0.39105342     0.33700
H1070       H  0.46384764  0.49798440  0.40127173     0.38200
H1071       H  0.52188085  0.41015383  0.42100286     0.33600
H1072       H  0.50218448  0.39592953  0.40769202     0.30300
H1073       H  0.44079522  0.38311538  0.38223727     0.33600
H1074       H  0.46004747  0.39212404  0.40011138     0.30300
H1075       H  0.50277552  0.41498590  0.30194878     0.38200
H1076       H  0.52248872  0.42414724  0.31926849     0.33700
C1077       C  0.62967603  0.53780811  0.66936030    -0.20100
C1078       C  0.62955676  0.55459062  0.65314651     0.36100
C1079       C  0.61431424  0.55352631  0.63551743    -0.26000
C1080       C  0.59976240  0.53581840  0.63346630     0.02600
C1081       C  0.59958760  0.51923416  0.64961712     0.27400
C1082       C  0.61429607  0.52056900  0.66758437    -0.25200
N1083       N  0.64533107  0.57219590  0.65413438    -0.82600
H1084       H  0.61415598  0.56622508  0.62296050     0.13200
C1085       C  0.58465947  0.53481980  0.61428799     0.02600
N1086       N  0.58486088  0.50086030  0.64737590    -0.81100
H1087       H  0.61402229  0.50783541  0.68009052     0.18000
C1088       C  0.59126170  0.52352966  0.59529511    -0.26000
C1089       C  0.57694064  0.52174995  0.57694882     0.36100
C1090       C  0.55564502  0.53140893  0.57788796    -0.20000
C1091       C  0.54930474  0.54290077  0.59692482    -0.25200
C1092       C  0.56364999  0.54478284  0.61510090     0.27400
H1093       H  0.60753442  0.51594864  0.59492219     0.13200
N1094       N  0.58377186  0.50990485  0.55765814    -0.82500
H1095       H  0.53309327  0.55059409  0.59756660     0.18000
N1096       N  0.55710273  0.55693899  0.63429971    -0.81100
H1097       H  0.59996623  0.50399490  0.55964668     0.33700
H1098       H  0.57349580  0.49620547  0.55617883     0.38200
H1099       H  0.54124835  0.56361660  0.63206133     0.33600
H1100       H  0.55597990  0.54595925  0.64753274     0.30300
H1101       H  0.58717011  0.48981282  0.66043270     0.33600
H1102       H  0.56858828  0.50667395  0.64859083     0.30300
H1103       H  0.66114478  0.56546506  0.65204357     0.38200
H1104       H  0.64282412  0.58317621  0.64105511     0.33700
C1105       C  0.49176029  0.45190509  0.57141020    -0.20100
C1106       C  0.50411897  0.45528050  0.59104564     0.36100
C1107       C  0.50375807  0.43930809  0.60779785    -0.26000
C1108       C  0.49148422  0.42002611  0.60528634     0.02600
C1109       C  0.47999615  0.41610481  0.58534271     0.27400
C1110       C  0.48057193  0.43197118  0.56843008    -0.25200
N1111       N  0.51687871  0.47495266  0.59394577    -0.82600
H1112       H  0.51265164  0.44210472  0.62314737     0.13200
C1113       C  0.48940862  0.40516275  0.62451940     0.02600
N1114       N  0.46684750  0.39664658  0.58281350    -0.81100
H1115       H  0.47144484  0.42917423  0.55327753     0.18000
C1116       C  0.47385702  0.41028280  0.64084273    -0.26000
C1117       C  0.47251129  0.39794092  0.66044431     0.36100
C1118       C  0.48658659  0.37959210  0.66343130    -0.20000
C1119       C  0.50207435  0.37447073  0.64689303    -0.25200
C1120       C  0.50385096  0.38726591  0.62761523     0.27400
H1121       H  0.46319766  0.42442665  0.63853134     0.13200
N1122       N  0.45747051  0.40444794  0.67758558    -0.82500
H1123       H  0.51296854  0.36049837  0.64910000     0.18000
N1124       N  0.52080647  0.38269786  0.61164387    -0.81100
H1125       H  0.44836119  0.41825676  0.67274753     0.33700
H1126       H  0.46701104  0.40907027  0.69127544     0.38200
H1127       H  0.53052486  0.36940517  0.61678018     0.33600
H1128       H  0.51303450  0.37796377  0.59696444     0.30300
H1129       H  0.45883743  0.39663374  0.56743625     0.33600
H1130       H  0.47758046  0.38321457  0.58287347     0.30300
H1131       H  0.52935984  0.47500556  0.58200129     0.38200
H1132       H  0.52488384  0.47491911  0.60932482     0.33700
C1133       C  0.32719074  0.52666710  0.65767531    -0.20100
C1134       C  0.34791040  0.51700966  0.66278695     0.36100
C1135       C  0.36421835  0.51570841  0.64636719    -0.26000
C1136       C  0.36035552  0.52434901  0.62518746     0.02600
C1137       C  0.33995516  0.53470030  0.62032345     0.27400
C1138       C  0.32348019  0.53562923  0.63661170    -0.25200
N1139       N  0.35231902  0.50877794  0.68467612    -0.82600
H1140       H  0.38003451  0.50800433  0.65007190     0.13200
C1141       C  0.37800590  0.52299822  0.60834794     0.02600
N1142       N  0.33616716  0.54432696  0.59890834    -0.81100
H1143       H  0.30759695  0.54315482  0.63282892     0.18000
C1144       C  0.37380543  0.51191387  0.58849341    -0.26000
C1145       C  0.38977724  0.51121691  0.57168284     0.36100
C1146       C  0.41026394  0.52197624  0.57486019    -0.20000
C1147       C  0.41463181  0.53250969  0.59501848    -0.25200
C1148       C  0.39867551  0.53322664  0.61175600     0.27400
H1149       H  0.35797339  0.50382457  0.58614349     0.13200
N1150       N  0.38535807  0.49949623  0.55157342    -0.82500
H1151       H  0.43034178  0.54079162  0.59749217     0.18000
N1152       N  0.40317127  0.54469520  0.63199655    -0.81100
H1153       H  0.36949919  0.49257195  0.55189534     0.33700
H1154       H  0.39662028  0.48648211  0.55077485     0.38200
H1155       H  0.41920342  0.55123876  0.63190145     0.33600
H1156       H  0.39221904  0.55795751  0.63278179     0.30300
H1157       H  0.32030758  0.55126261  0.59799312     0.33600
H1158       H  0.34746058  0.55717231  0.59703221     0.30300
H1159       H  0.35188100  0.52207571  0.69548741     0.38200
H1160       H  0.36834906  0.50224523  0.68570882     0.33700
C1161       C  0.46809394  0.67251161  0.66966325    -0.20100
C1162       C  0.48040215  0.67737749  0.65044964     0.36100
C1163       C  0.48027055  0.66259338  0.63271765    -0.26000
C1164       C  0.46745383  0.64344051  0.63338847     0.02600
C1165       C  0.45399301  0.63930999  0.65197799     0.27400
C1166       C  0.45462550  0.65376256  0.66999750    -0.25200
N1167       N  0.49292961  0.69733753  0.64899403    -0.82600
H1168       H  0.49052797  0.66584551  0.61843017     0.13200
C1169       C  0.46924487  0.62732184  0.61507799     0.02600
N1170       N  0.43989595  0.62034927  0.65253347    -0.81100
H1171       H  0.44492252  0.65012241  0.68457645     0.18000
C1172       C  0.47518917  0.60566603  0.62008326    -0.26000
C1173       C  0.47764932  0.58986130  0.60345399     0.36100
C1174       C  0.47472911  0.59600660  0.58094867    -0.20000
C1175       C  0.46896900  0.61787633  0.57606099    -0.25200
C1176       C  0.46593487  0.63345606  0.59281763     0.27400
H1177       H  0.47803435  0.60106478  0.63718099     0.13200
N1178       N  0.48348617  0.56780176  0.60953052    -0.82500
H1179       H  0.46664565  0.62293544  0.55904038     0.18000
N1180       N  0.45941821  0.65546874  0.58730840    -0.81100
H1181       H  0.48703283  0.56667503  0.62643313     0.33700
H1182       H  0.46943764  0.55810117  0.60692393     0.38200
H1183       H  0.45775408  0.65736559  0.57019777     0.33600
H1184       H  0.44369342  0.65813336  0.59402311     0.30300
H1185       H  0.43112149  0.61964177  0.66737845     0.33600
H1186       H  0.42809200  0.62212221  0.63991386     0.30300
H1187       H  0.48164883  0.71034703  0.64951898     0.38200
H1188       H  0.50101627  0.69843980  0.63378752     0.33700
C1189       C  0.68535041  0.78432124  0.66504429    -0.20100
C1190       C  0.69458287  0.79791596  0.64841360     0.36100
C1191       C  0.69051059  0.79307152  0.62598061    -0.26000
C1192       C  0.67694278  0.77543268  0.61989503     0.02600
C1193       C  0.66612281  0.76322921  0.63641461     0.27400
C1194       C  0.67057771  0.76763242  0.65870283    -0.25200
N1195       N  0.70871761  0.81596949  0.65417480    -0.82600
H1196       H  0.69847775  0.80265448  0.61318580     0.13200
C1197       C  0.67505342  0.76877087  0.59638079     0.02600
N1198       N  0.65094702  0.74607396  0.63040618    -0.81100
H1199       H  0.66279116  0.75753787  0.67120586     0.18000
C1200       C  0.68143612  0.74745304  0.59067166    -0.26000
C1201       C  0.67777260  0.73939709  0.56935841     0.36100
C1202       C  0.66789285  0.75293018  0.55315984    -0.20000
C1203       C  0.66263480  0.77469602  0.55843903    -0.25200
C1204       C  0.66591711  0.78271363  0.58003671     0.27400
H1205       H  0.68877718  0.73676774  0.60306278     0.13200
N1206       N  0.68390639  0.71733414  0.56423954    -0.82500
H1207       H  0.65496373  0.78507858  0.54599707     0.18000
N1208       N  0.65930570  0.80460105  0.58562465    -0.81100
H1209       H  0.70090626  0.71552956  0.56733035     0.33700
H1210       H  0.67539295  0.70687977  0.57496512     0.38200
H1211       H  0.65282143  0.81268130  0.57175280     0.33600
H1212       H  0.64640329  0.80345965  0.59705820     0.30300
H1213       H  0.64446187  0.73852143  0.64449213     0.33600
H1214       H  0.63755007  0.75334216  0.62210035     0.30300
H1215       H  0.69882628  0.82765469  0.66199617     0.38200
H1216       H  0.71489495  0.82355738  0.63996879     0.33700
C1217       C  0.69934926  0.68140948  0.76331387    -0.20100
C1218       C  0.71573294  0.66534984  0.76774207     0.36100
C1219       C  0.71131395  0.64334596  0.76258396    -0.26000
C1220       C  0.69084577  0.63718030  0.75346943     0.02600
C1221       C  0.67412756  0.65297172  0.75005114     0.27400
C1222       C  0.67855429  0.67494153  0.75499709    -0.25200
N1223       N  0.73721335  0.67154542  0.77605760    -0.82600
H1224       H  0.72408706  0.63103979  0.76498334     0.13200
C1225       C  0.68785006  0.61472050  0.74511514     0.02600
N1226       N  0.65299098  0.64669631  0.74090796    -0.81100
H1227       H  0.66595290  0.68722213  0.75165849     0.18000
C1228       C  0.67495608  0.59973492  0.75704967    -0.26000
C1229       C  0.66959697  0.57921928  0.74802862     0.36100
C1230       C  0.67716818  0.57394096  0.72672134    -0.20000
C1231       C  0.69077034  0.58857937  0.71520612    -0.25200
C1232       C  0.69625666  0.60897032  0.72424206     0.27400
H1233       H  0.66861100  0.60431837  0.77310148     0.13200
N1234       N  0.65622591  0.56390838  0.76015341    -0.82500
H1235       H  0.69659456  0.58427934  0.69887075     0.18000
N1236       N  0.70987421  0.62410429  0.71213612    -0.81100
H1237       H  0.65217975  0.57024126  0.77564492     0.33700
H1238       H  0.64127398  0.56197289  0.75152701     0.38200
H1239       H  0.71493667  0.61723493  0.69718782     0.33600
H1240       H  0.70007133  0.63769270  0.70809123     0.30300
H1241       H  0.64245754  0.66026298  0.73957909     0.33600
H1242       H  0.65567060  0.64115564  0.72481631     0.30300
H1243       H  0.73511895  0.67682257  0.79232098     0.38200
H1244       H  0.74775108  0.65794941  0.77691927     0.33700
C1245       C  0.62300536  0.74974868  0.75011179    -0.20100
C1246       C  0.61030363  0.74083847  0.76749167     0.36100
C1247       C  0.58844171  0.73390253  0.76318520    -0.26000
C1248       C  0.57921084  0.73594240  0.74195154     0.02600
C1249       C  0.59186891  0.74492460  0.72466788     0.27400
C1250       C  0.61373831  0.75158130  0.72888600    -0.25200
N1251       N  0.61976934  0.73854959  0.78924606    -0.82600
H1252       H  0.57858376  0.72683778  0.77632476     0.13200
C1253       C  0.55644637  0.72809912  0.73759332     0.02600
N1254       N  0.58238350  0.74726016  0.70292532    -0.81100
H1255       H  0.62353908  0.75850431  0.71562103     0.18000
C1256       C  0.53938523  0.74340765  0.73441696    -0.26000
C1257       C  0.51806222  0.73672120  0.72782784     0.36100
C1258       C  0.51374612  0.71420148  0.72473684    -0.20000
C1259       C  0.53080109  0.69889052  0.72838484    -0.25200
C1260       C  0.55219779  0.70565408  0.73462859     0.27400
H1261       H  0.54295443  0.76066501  0.73643759     0.13200
N1262       N  0.50102257  0.75272769  0.72356529    -0.82500
H1263       H  0.52746525  0.68163422  0.72602446     0.18000
N1264       N  0.56976666  0.68992730  0.73751331    -0.81100
H1265       H  0.50692481  0.76851345  0.72663937     0.33700
H1266       H  0.49710836  0.75209126  0.70672422     0.38200
H1267       H  0.56387484  0.67407596  0.73478137     0.33600
H1268       H  0.58163876  0.69296051  0.72534097     0.30300
H1269       H  0.59379728  0.75441003  0.69213762     0.33600
H1270       H  0.57917068  0.73156392  0.69690012     0.30300
H1271       H  0.63290768  0.72739786  0.78822986     0.38200
H1272       H  0.60821386  0.73174349  0.80011037     0.33700
C1273       C  0.74039541  0.31836885  0.65435764    -0.20100
C1274       C  0.75127942  0.30741565  0.63690260     0.36100
C1275       C  0.74799088  0.31466758  0.61497265    -0.26000
C1276       C  0.73370376  0.33220350  0.61017926     0.02600
C1277       C  0.72348211  0.34360138  0.62752539     0.27400
C1278       C  0.72701266  0.33667493  0.64938358    -0.25200
N1279       N  0.76467247  0.28838128  0.64128194    -0.82600
H1280       H  0.75562768  0.30590393  0.60145918     0.13200
C1281       C  0.72737360  0.33698307  0.58698766     0.02600
N1282       N  0.70898395  0.36175877  0.62274635    -0.81100
H1283       H  0.71876284  0.34534150  0.66260309     0.18000
C1284       C  0.70613949  0.33083843  0.57979913    -0.26000
C1285       C  0.69861220  0.33607766  0.55845030     0.36100
C1286       C  0.71247031  0.34813137  0.54416360    -0.20000
C1287       C  0.73407832  0.35356235  0.55104909    -0.25200
C1288       C  0.74168727  0.34808873  0.57242961     0.27400
H1289       H  0.69535736  0.32203342  0.59101550     0.13200
N1290       N  0.67693562  0.32926647  0.55118610    -0.82500
H1291       H  0.74471310  0.36272736  0.53999626     0.18000
N1292       N  0.76363960  0.35407957  0.57955929    -0.81100
H1293       H  0.66884894  0.32057457  0.56368892     0.33700
H1294       H  0.67911295  0.31837235  0.53809275     0.38200
H1295       H  0.77209101  0.36206366  0.56682114     0.33600
H1296       H  0.76200753  0.36538783  0.59236910     0.30300
H1297       H  0.70245142  0.36819220  0.63732009     0.33600
H1298       H  0.71858524  0.37412124  0.61560830     0.30300
H1299       H  0.75413655  0.27607457  0.64708996     0.38200
H1300       H  0.77164778  0.28249746  0.62667593     0.33700
C1301       C  0.52658352  0.33997936  0.72390194    -0.20100
C1302       C  0.53738085  0.32080204  0.71688130     0.36100
C1303       C  0.55873927  0.31601450  0.72501084    -0.26000
C1304       C  0.56932016  0.32999450  0.74010980     0.02600
C1305       C  0.55807742  0.34874883  0.74775603     0.27400
C1306       C  0.53678486  0.35361974  0.73946487    -0.25200
N1307       N  0.52688860  0.30673522  0.70096966    -0.82600
H1308       H  0.56745982  0.30169286  0.71906784     0.13200
C1309       C  0.59271207  0.32553135  0.74652620     0.02600
N1310       N  0.56848940  0.36287481  0.76365274    -0.81100
H1311       H  0.52828197  0.36831608  0.74476711     0.18000
C1312       C  0.60906239  0.34097376  0.74118997    -0.26000
C1313       C  0.63166420  0.33654765  0.74495685     0.36100
C1314       C  0.63801192  0.31618962  0.75420668    -0.20000
C1315       C  0.62157221  0.30118181  0.76050134    -0.25200
C1316       C  0.59896141  0.30560342  0.75663297     0.27400
H1317       H  0.60418958  0.35627214  0.73342701     0.13200
N1318       N  0.64821100  0.35247762  0.73912656    -0.82500
H1319       H  0.62644245  0.28553508  0.76751036     0.18000
N1320       N  0.58233743  0.28978045  0.76246158    -0.81100
H1321       H  0.64080054  0.36649155  0.73236698     0.33700
H1322       H  0.65613921  0.35735292  0.75370906     0.38200
H1323       H  0.58967821  0.27589449  0.76955262     0.33600
H1324       H  0.57233207  0.29676309  0.77461562     0.30300
H1325       H  0.55805678  0.37600235  0.76747096     0.33600
H1326       H  0.57065702  0.35387054  0.77823776     0.30300
H1327       H  0.51268255  0.30020377  0.70832066     0.38200
H1328       H  0.53720030  0.29348517  0.69725424     0.33700
C1329       C  0.71466192  0.38282008  0.73475004    -0.20100
C1330       C  0.72583135  0.40009832  0.74569990     0.36100
C1331       C  0.71965223  0.42185804  0.74153549    -0.26000
C1332       C  0.70252054  0.42692597  0.72665865     0.02600
C1333       C  0.69118381  0.40991444  0.71574674     0.27400
C1334       C  0.69742107  0.38809614  0.71979745    -0.25200
N1335       N  0.74358796  0.39580784  0.76096476    -0.82600
H1336       H  0.72846218  0.43493462  0.74985395     0.13200
C1337       C  0.69675620  0.45014000  0.72243254     0.02600
N1338       N  0.67324408  0.41489057  0.70075233    -0.81100
H1339       H  0.68854210  0.37517895  0.71133182     0.18000
C1340       C  0.69842775  0.45843150  0.70087396    -0.26000
C1341       C  0.69202481  0.47997835  0.69589924     0.36100
C1342       C  0.68385932  0.49349304  0.71291290    -0.20000
C1343       C  0.68311426  0.48549579  0.73465326    -0.25200
C1344       C  0.68927135  0.46383679  0.73956724     0.27400
H1345       H  0.70452190  0.44792343  0.68785301     0.13200
N1346       N  0.69352060  0.48812921  0.67362845    -0.82500
H1347       H  0.67666746  0.49584979  0.74762984     0.18000
N1348       N  0.68725649  0.45546759  0.76170130    -0.81100
H1349       H  0.69965215  0.47605665  0.66308582     0.33700
H1350       H  0.70508044  0.50087160  0.67359197     0.38200
H1351       H  0.68151353  0.46765154  0.77233141     0.33600
H1352       H  0.67513346  0.44323981  0.76147198     0.30300
H1353       H  0.66667881  0.40055366  0.69399783     0.33600
H1354       H  0.66053861  0.42210643  0.70991638     0.30300
H1355       H  0.73930670  0.40249748  0.77623830     0.38200
H1356       H  0.75778176  0.40384979  0.75529557     0.33700
C1357       C  0.25857058  0.71915159  0.54970254    -0.20100
C1358       C  0.23550108  0.71797821  0.55376097     0.36100
C1359       C  0.22722579  0.72500542  0.57425084    -0.26000
C1360       C  0.24162636  0.73295705  0.59059338     0.02600
C1361       C  0.26445250  0.73507701  0.58615275     0.27400
C1362       C  0.27271536  0.72809945  0.56576377    -0.25200
N1363       N  0.22074414  0.70892605  0.53744471    -0.82600
H1364       H  0.20970479  0.72339137  0.57787431     0.13200
C1365       C  0.23341416  0.73670766  0.61320718     0.02600
N1366       N  0.27918188  0.74379738  0.60268474    -0.81100
H1367       H  0.29033610  0.72935455  0.56246473     0.18000
C1368       C  0.23981786  0.72183058  0.62968739    -0.26000
C1369       C  0.23527298  0.72589352  0.65195303     0.36100
C1370       C  0.22424402  0.74540383  0.65787324    -0.20000
C1371       C  0.21644122  0.75960224  0.64120109    -0.25200
C1372       C  0.22107639  0.75546723  0.61879665     0.27400
H1373       H  0.24901270  0.70727599  0.62514738     0.13200
N1374       N  0.24216171  0.71046526  0.66864678    -0.82500
H1375       H  0.20784281  0.77449859  0.64573471     0.18000
N1376       N  0.21401414  0.77051299  0.60183650    -0.81100
H1377       H  0.25012505  0.69704036  0.66151347     0.33700
H1378       H  0.22785359  0.70442919  0.67622731     0.38200
H1379       H  0.20510601  0.78348286  0.60871649     0.33600
H1380       H  0.22824476  0.77729338  0.59476459     0.30300
H1381       H  0.29551115  0.74408740  0.59691890     0.33600
H1382       H  0.27457994  0.76007293  0.60537104     0.30300
H1383       H  0.22495922  0.69244928  0.53545906     0.38200
H1384       H  0.20434945  0.70927523  0.54302354     0.33700
C1385       C  0.32314712  0.74305303  0.76320837    -0.20100
C1386       C  0.32840517  0.72242693  0.75422128     0.36100
C1387       C  0.35064804  0.71693449  0.75064931    -0.26000
C1388       C  0.36777803  0.73130347  0.75652114     0.02600
C1389       C  0.36265307  0.75116146  0.76717549     0.27400
C1390       C  0.34028297  0.75689736  0.77039337    -0.25200
N1391       N  0.31107990  0.70731665  0.74838467    -0.82600
H1392       H  0.35462077  0.70165888  0.74253003     0.13200
C1393       C  0.39066849  0.72590965  0.74958742     0.02600
N1394       N  0.38015228  0.76557787  0.77414430    -0.81100
H1395       H  0.33621597  0.77262463  0.77753748     0.18000
C1396       C  0.40175582  0.74029989  0.73527476    -0.26000
C1397       C  0.42207335  0.73441328  0.72572654     0.36100
C1398       C  0.43124928  0.71372373  0.73051236    -0.20000
C1399       C  0.42059886  0.69958689  0.74528915    -0.25200
C1400       C  0.40037971  0.70553455  0.75500910     0.27400
H1401       H  0.39409760  0.75578599  0.73087010     0.13200
N1402       N  0.43297494  0.74890238  0.71048651    -0.82500
H1403       H  0.42794030  0.68376926  0.74894944     0.18000
N1404       N  0.38940365  0.69085342  0.77000020    -0.81100
H1405       H  0.42373694  0.76325932  0.70830863     0.33700
H1406       H  0.44808734  0.75354469  0.71762220     0.38200
H1407       H  0.39864965  0.67649332  0.77211165     0.33600
H1408       H  0.38881270  0.69847784  0.78542039     0.30300
H1409       H  0.37357449  0.77954264  0.78160916     0.33600
H1410       H  0.38940276  0.75738110  0.78629329     0.30300
H1411       H  0.30287238  0.70293906  0.76292283     0.38200
H1412       H  0.31777179  0.69290296  0.74194735     0.33700
C1413       C  0.24747032  0.67689988  0.73436978    -0.20100
C1414       C  0.26157908  0.67137611  0.71645902     0.36100
C1415       C  0.26460265  0.64929938  0.71086981    -0.26000
C1416       C  0.25444595  0.63254765  0.72292168     0.02600
C1417       C  0.24077589  0.63776256  0.74090243     0.27400
C1418       C  0.23736845  0.65982952  0.74640884    -0.25200
N1419       N  0.27282860  0.68797955  0.70389573    -0.82600
H1420       H  0.27537785  0.64503241  0.69725555     0.13200
C1421       C  0.25930142  0.60959122  0.71697644     0.02600
N1422       N  0.23035214  0.62060957  0.75341020    -0.81100
H1423       H  0.22664541  0.66362883  0.76017960     0.18000
C1424       C  0.27223749  0.59681246  0.73140713    -0.26000
C1425       C  0.27940224  0.57582774  0.72529387     0.36100
C1426       C  0.27337803  0.56757290  0.70438426    -0.20000
C1427       C  0.25995417  0.58011063  0.69017189    -0.25200
C1428       C  0.25273412  0.60107762  0.69633662     0.27400
H1429       H  0.27738822  0.60357435  0.74714718     0.13200
N1430       N  0.29376045  0.56337927  0.73967351    -0.82500
H1431       H  0.25543419  0.57363078  0.67412217     0.18000
N1432       N  0.23911138  0.61395132  0.68164627    -0.81100
H1433       H  0.29751623  0.57227924  0.75392926     0.33700
H1434       H  0.28499980  0.54957015  0.74490029     0.38200
H1435       H  0.23585169  0.60536680  0.66707550     0.33600
H1436       H  0.22381753  0.61635015  0.68936752     0.30300
H1437       H  0.22088887  0.62715974  0.76622433     0.33600
H1438       H  0.21927295  0.61256611  0.74285993     0.30300
H1439       H  0.28491060  0.69486725  0.71415746     0.38200
H1440       H  0.28139449  0.68110619  0.69063292     0.33700
C1441       C  0.22913607  0.30659707  0.65518843    -0.20100
C1442       C  0.23659608  0.32777178  0.64961607     0.36100
C1443       C  0.24058807  0.33305358  0.62743445    -0.26000
C1444       C  0.23660142  0.31785519  0.61057926     0.02600
C1445       C  0.22729226  0.29731578  0.61596434     0.27400
C1446       C  0.22375829  0.29181801  0.63829576    -0.25200
N1447       N  0.24047320  0.34369720  0.66661101    -0.82600
H1448       H  0.24764404  0.34885208  0.62336150     0.13200
C1449       C  0.24414470  0.32312308  0.58781188     0.02600
N1450       N  0.22197483  0.28200242  0.59877227    -0.81100
H1451       H  0.21777587  0.27563693  0.64256835     0.18000
C1452       C  0.25923627  0.30898039  0.57745088    -0.26000
C1453       C  0.26870538  0.31441884  0.55699114     0.36100
C1454       C  0.26325614  0.33454946  0.54693569    -0.20000
C1455       C  0.24790777  0.34853986  0.55697357    -0.25200
C1456       C  0.23812066  0.34295059  0.57726287     0.27400
H1457       H  0.26415259  0.29394016  0.58568126     0.13200
N1458       N  0.28439881  0.29997210  0.54673469    -0.82500
H1459       H  0.24368943  0.36391249  0.54898769     0.18000
N1460       N  0.22227275  0.35737774  0.58731452    -0.81100
H1461       H  0.28700478  0.28606099  0.55653622     0.33700
H1462       H  0.27732434  0.29451510  0.53194055     0.38200
H1463       H  0.21975331  0.37129485  0.57750090     0.33600
H1464       H  0.20708880  0.34913759  0.58793626     0.30300
H1465       H  0.21537324  0.26764107  0.60548581     0.33600
H1466       H  0.20947348  0.28901887  0.58898668     0.30300
H1467       H  0.24585083  0.35849172  0.65976123     0.38200
H1468       H  0.22525665  0.34691644  0.67417832     0.33700
C1469       C  0.25231992  0.37486152  0.73292956    -0.20100
C1470       C  0.26896161  0.38150666  0.71776797     0.36100
C1471       C  0.27324115  0.40384237  0.71476577    -0.26000
C1472       C  0.26157373  0.41980590  0.72649420     0.02600
C1473       C  0.24492104  0.41343535  0.74139662     0.27400
C1474       C  0.24040403  0.39107815  0.74439931    -0.25200
N1475       N  0.28172247  0.36577061  0.70558252    -0.82600
H1476       H  0.28575324  0.40891400  0.70300931     0.13200
C1477       C  0.26699022  0.44310580  0.72248073     0.02600
N1478       N  0.23287957  0.42967466  0.75360996    -0.81100
H1479       H  0.22767427  0.38636931  0.75604875     0.18000
C1480       C  0.25036894  0.45741962  0.71484823    -0.26000
C1481       C  0.25557738  0.47881455  0.70807370     0.36100
C1482       C  0.27788853  0.48581535  0.70880964    -0.20000
C1483       C  0.29428162  0.47182440  0.71747073    -0.25200
C1484       C  0.28902653  0.45061329  0.72453695     0.27400
H1485       H  0.23346220  0.45156980  0.71328046     0.13200
N1486       N  0.23848209  0.49310649  0.69970909    -0.82500
H1487       H  0.31133338  0.47741072  0.71839222     0.18000
N1488       N  0.30600052  0.43649451  0.73346282    -0.81100
H1489       H  0.22297113  0.48549128  0.70050620     0.33700
H1490       H  0.24168260  0.49597661  0.68298611     0.38200
H1491       H  0.32134633  0.44446900  0.73372806     0.33600
H1492       H  0.30192630  0.43316800  0.74990877     0.30300
H1493       H  0.22111002  0.42229469  0.76384436     0.33600
H1494       H  0.24420051  0.43760821  0.76398888     0.30300
H1495       H  0.27106673  0.35845868  0.69414776     0.38200
H1496       H  0.29410859  0.37345261  0.69633910     0.33700
C1497       C  0.33404490  0.31114802  0.75344581    -0.20100
C1498       C  0.33929575  0.33016189  0.74108459     0.36100
C1499       C  0.36157515  0.33508639  0.73669174    -0.26000
C1500       C  0.37870824  0.32155198  0.74440602     0.02600
C1501       C  0.37371704  0.30314940  0.75754180     0.27400
C1502       C  0.35137198  0.29823304  0.76216345    -0.25200
N1503       N  0.32198141  0.34419591  0.73268841    -0.82600
H1504       H  0.36563978  0.34926889  0.72669125     0.13200
C1505       C  0.40156025  0.32614695  0.73695530     0.02600
N1506       N  0.39128958  0.28922018  0.76552104    -0.81100
H1507       H  0.34744566  0.28362057  0.77155358     0.18000
C1508       C  0.41625378  0.33748183  0.75080023    -0.26000
C1509       C  0.43725130  0.34404118  0.74313887     0.36100
C1510       C  0.44360150  0.33885298  0.72132970    -0.20000
C1511       C  0.42896658  0.32715070  0.70770111    -0.25200
C1512       C  0.40800058  0.32072044  0.71531973     0.27400
H1513       H  0.41103084  0.34178367  0.76733140     0.13200
N1514       N  0.45184749  0.35649219  0.75712415    -0.82500
H1515       H  0.43391486  0.32312328  0.69101232     0.18000
N1516       N  0.39297781  0.30906277  0.70107903    -0.81100
H1517       H  0.44465877  0.35896747  0.77260311     0.33700
H1518       H  0.45372466  0.37196294  0.74993067     0.38200
H1519       H  0.40011955  0.30656175  0.68558307     0.33600
H1520       H  0.39047426  0.29356769  0.70801269     0.30300
H1521       H  0.38482662  0.27636866  0.77494625     0.33600
H1522       H  0.39886330  0.28210230  0.75180010     0.30300
H1523       H  0.31381188  0.35096980  0.74624383     0.38200
H1524       H  0.32866114  0.35727462  0.72374162     0.33700
C1525       C  0.14879959  0.18084845  0.00510947    -0.20100
C1526       C  0.14677006  0.16290916  0.01980132     0.36100
C1527       C  0.12750409  0.15003338  0.01947426    -0.26000
C1528       C  0.11007005  0.15448253  0.00466330     0.02600
C1529       C  0.11175779  0.17255496  0.99019961     0.27400
C1530       C  0.13106124  0.18558048  0.99060993    -0.25200
N1531       N  0.16450823  0.15718005  0.03460523    -0.82600
H1532       H  0.12630608  0.13616640  0.03063346     0.13200
C1533       C  0.09077833  0.13928852  0.00387243     0.02600
N1534       N  0.09405211  0.17736295  0.97490950    -0.81100
H1535       H  0.13231954  0.19943801  0.97946603     0.18000
C1536       C  0.06944194  0.14669757  0.00933986    -0.26000
C1537       C  0.05112211  0.13227651  0.00980994     0.36100
C1538       C  0.05439463  0.10972078  0.00529750    -0.20000
C1539       C  0.07581368  0.10270611  0.99913925    -0.25200
C1540       C  0.09383717  0.11720056  0.99814354     0.27400
H1541       H  0.06713709  0.16379131  0.01344282     0.13200
N1542       N  0.02947062  0.14050563  0.01522578    -0.82500
H1543       H  0.07863410  0.08572764  0.99490475     0.18000
N1544       N  0.11532102  0.10958463  0.99127469    -0.81100
H1545       H  0.03028964  0.15709025  0.01933583     0.33700
H1546       H  0.01973897  0.13966409  0.00089295     0.38200
H1547       H  0.11486623  0.09287439  0.98765253     0.33600
H1548       H  0.11921022  0.11764950  0.97652381     0.30300
H1549       H  0.09781879  0.19123907  0.96549208     0.33600
H1550       H  0.09292154  0.16428526  0.96387482     0.30300
H1551       H  0.15837302  0.15758599  0.05073209     0.38200
H1552       H  0.16941231  0.14112532  0.03123107     0.33700
C1553       C  0.24293363  0.24242650  0.85196981    -0.20100
C1554       C  0.23286223  0.22244186  0.85827369     0.36100
C1555       C  0.22834919  0.21839761  0.88065079    -0.26000
C1556       C  0.23386095  0.23371624  0.89689313     0.02600
C1557       C  0.24524996  0.25297222  0.89093054     0.27400
C1558       C  0.24986732  0.25708135  0.86846489    -0.25200
N1559       N  0.22676924  0.20655322  0.84184857    -0.82600
H1560       H  0.21982526  0.20351653  0.88542973     0.13200
C1561       C  0.22566561  0.23000877  0.91964061     0.02600
N1562       N  0.25144793  0.26852085  0.90760694    -0.81100
H1563       H  0.25766079  0.27235134  0.86372661     0.18000
C1564       C  0.23941520  0.21997870  0.93547044    -0.26000
C1565       C  0.23115448  0.21421640  0.95644728     0.36100
C1566       C  0.20869205  0.21863173  0.96156233    -0.20000
C1567       C  0.19515259  0.22904841  0.94575128    -0.25200
C1568       C  0.20345478  0.23490125  0.92490733     0.27400
H1569       H  0.25643057  0.21614394  0.93121870     0.13200
N1570       N  0.24529096  0.20341287  0.97231679    -0.82500
H1571       H  0.17802140  0.23267382  0.94973721     0.18000
N1572       N  0.18934463  0.24547130  0.90885133    -0.81100
H1573       H  0.26128449  0.20142440  0.96599448     0.33700
H1574       H  0.23893768  0.18770758  0.97493238     0.38200
H1575       H  0.17339594  0.24771911  0.91519695     0.33600
H1576       H  0.19578622  0.26108993  0.90593191     0.30300
H1577       H  0.25979749  0.28176788  0.90051302     0.33600
H1578       H  0.23685970  0.27479190  0.91441460     0.30300
H1579       H  0.24138775  0.20102576  0.83447468     0.38200
H1580       H  0.21934552  0.19289731  0.84918225     0.33700
C1581       C  0.67050218  0.75268243  0.46986228    -0.20100
C1582       C  0.69337979  0.75234510  0.46500495     0.36100
C1583       C  0.70048914  0.75786839  0.44359217    -0.26000
C1584       C  0.68516786  0.76347661  0.42692344     0.02600
C1585       C  0.66233147  0.76444819  0.43200876     0.27400
C1586       C  0.65524269  0.75895667  0.45340358    -0.25200
N1587       N  0.70918462  0.74547816  0.48153323    -0.82600
H1588       H  0.71797369  0.75685971  0.43960360     0.13200
C1589       C  0.69305212  0.76664152  0.40386863     0.02600
N1590       N  0.64643020  0.77064596  0.41530080    -0.81100
H1591       H  0.63767514  0.75911183  0.45718784     0.18000
C1592       C  0.68434996  0.75330523  0.38717820    -0.26000
C1593       C  0.69136658  0.75526505  0.36516538     0.36100
C1594       C  0.70752093  0.77126089  0.35950489    -0.20000
C1595       C  0.71649118  0.78433745  0.37648101    -0.25200
C1596       C  0.70942004  0.78221087  0.39852282     0.27400
H1597       H  0.67214349  0.74100565  0.39145829     0.13200
N1598       N  0.68201315  0.74100256  0.34871942    -0.82500
H1599       H  0.72887166  0.79656489  0.37256314     0.18000
N1600       N  0.71858297  0.79599724  0.41545567    -0.81100
H1601       H  0.66960593  0.73112028  0.35548179     0.33700
H1602       H  0.69461152  0.73040228  0.34365280     0.38200
H1603       H  0.73053899  0.80651412  0.40886734     0.33600
H1604       H  0.70575014  0.80588164  0.42135480     0.30300
H1605       H  0.63032347  0.77034423  0.42165197     0.33600
H1606       H  0.64968668  0.78686918  0.41084299     0.30300
H1607       H  0.70601736  0.72904630  0.48521575     0.38200
H1608       H  0.72532677  0.74614115  0.47530331     0.33700
C1609       C  0.52271356  0.75846279  0.32147517    -0.20100
C1610       C  0.53593144  0.74540642  0.30763368     0.36100
C1611       C  0.55680880  0.75290344  0.30094343    -0.26000
C1612       C  0.56485002  0.77327928  0.30788688     0.02600
C1613       C  0.55139737  0.78680527  0.32108953     0.27400
C1614       C  0.53029077  0.77931344  0.32763410    -0.25200
N1615       N  0.52817480  0.72446364  0.30039603    -0.82600
H1616       H  0.56706976  0.74252323  0.29069520     0.13200
C1617       C  0.58813007  0.77909745  0.30271600     0.02600
N1618       N  0.55948273  0.80772920  0.32828253    -0.81100
H1619       H  0.52010622  0.78934801  0.33828199     0.18000
C1620       C  0.59283170  0.79586664  0.28753811    -0.26000
C1621       C  0.61481966  0.80000741  0.28073846     0.36100
C1622       C  0.63240822  0.78737700  0.28979564    -0.20000
C1623       C  0.62748008  0.77124985  0.30572772    -0.25200
C1624       C  0.60562979  0.76690323  0.31212077     0.27400
H1625       H  0.57922202  0.80513310  0.28035551     0.13200
N1626       N  0.61913737  0.81638556  0.26420537    -0.82500
H1627       H  0.64075240  0.76165686  0.31310667     0.18000
N1628       N  0.60103899  0.74984276  0.32789206    -0.81100
H1629       H  0.60444411  0.82435232  0.25957963     0.33700
H1630       H  0.62484501  0.80833762  0.25011344     0.38200
H1631       H  0.61571557  0.74214211  0.33302031     0.33600
H1632       H  0.59425354  0.75719467  0.34189142     0.30300
H1633       H  0.54756050  0.81564610  0.33788415     0.33600
H1634       H  0.57320305  0.80493592  0.33858317     0.30300
H1635       H  0.52786823  0.72451489  0.28311873     0.38200
H1636       H  0.53962980  0.71262428  0.30561708     0.33700
C1637       C  0.73762370  0.69087272  0.29077168    -0.20100
C1638       C  0.73004386  0.68393096  0.31168498     0.36100
C1639       C  0.72647139  0.66152712  0.31563775    -0.26000
C1640       C  0.73014051  0.64597076  0.29905404     0.02600
C1641       C  0.73864215  0.65281040  0.27847292     0.27400
C1642       C  0.74250413  0.67520201  0.27461076    -0.25200
N1643       N  0.72555383  0.69971925  0.32863266    -0.82600
H1644       H  0.71988223  0.65624853  0.33140805     0.13200
C1645       C  0.72291354  0.62301686  0.30282264     0.02600
N1646       N  0.74266628  0.63704049  0.26139296    -0.81100
H1647       H  0.74821509  0.68055715  0.25852244     0.18000
C1648       C  0.70611069  0.61434287  0.28931485    -0.26000
C1649       C  0.69703299  0.59365367  0.29347615     0.36100
C1650       C  0.70509982  0.58119045  0.31158460    -0.20000
C1651       C  0.72227298  0.58958189  0.32480514    -0.25200
C1652       C  0.73132656  0.61039314  0.32056926     0.27400
H1653       H  0.69947475  0.62405466  0.27577230     0.13200
N1654       N  0.67952153  0.58607219  0.27917571    -0.82500
H1655       H  0.72835189  0.57998561  0.33868178     0.18000
N1656       N  0.74883390  0.61887166  0.33429681    -0.81100
H1657       H  0.66593684  0.59653542  0.28118807     0.33700
H1658       H  0.67414761  0.57040322  0.28344495     0.38200
H1659       H  0.75305479  0.60760956  0.34668701     0.33600
H1660       H  0.76288437  0.62072324  0.32439891     0.30300
H1661       H  0.74860714  0.64474282  0.24714780     0.33600
H1662       H  0.75527431  0.62659021  0.26698898     0.30300
H1663       H  0.71990866  0.69197306  0.34297595     0.38200
H1664       H  0.74058000  0.70725912  0.33274840     0.33700
C1665       C  0.73802144  0.32435216  0.34932427    -0.20100
C1666       C  0.72417250  0.34195307  0.35583872     0.36100
C1667       C  0.72283840  0.34763589  0.37825993    -0.26000
C1668       C  0.73546193  0.33675749  0.39446347     0.02600
C1669       C  0.75022300  0.32002856  0.38793801     0.27400
C1670       C  0.75127279  0.31393604  0.36548991    -0.25200
N1671       N  0.71136121  0.35399816  0.33973737    -0.82600
H1672       H  0.71140355  0.36038802  0.38321353     0.13200
C1673       C  0.73150272  0.34213017  0.41818218     0.02600
N1674       N  0.76389276  0.30915107  0.40415238    -0.81100
H1675       H  0.76208965  0.30060936  0.36071650     0.18000
C1676       C  0.72479315  0.32543960  0.43270965    -0.26000
C1677       C  0.71731447  0.33020592  0.45416604     0.36100
C1678       C  0.71649740  0.35218658  0.46124003    -0.20000
C1679       C  0.72399954  0.36879684  0.44706690    -0.25200
C1680       C  0.73167157  0.36400289  0.42570697     0.27400
H1681       H  0.72431785  0.30870308  0.42689385     0.13200
N1682       N  0.70907139  0.31298068  0.46813520    -0.82500
H1683       H  0.72341658  0.38564322  0.45257218     0.18000
N1684       N  0.73915100  0.38130328  0.41141712    -0.81100
H1685       H  0.70925487  0.29803366  0.45979077     0.33700
H1686       H  0.72011050  0.31118891  0.48139000     0.38200
H1687       H  0.73797158  0.39644296  0.41931907     0.33600
H1688       H  0.75599745  0.37863298  0.40833313     0.30300
H1689       H  0.77373008  0.29717517  0.39671886     0.33600
H1690       H  0.77476564  0.32078734  0.41071796     0.30300
H1691       H  0.72252851  0.36207413  0.32936006     0.38200
H1692       H  0.70186666  0.36616038  0.34730452     0.33700
C1693       C  0.71612755  0.38916750  0.27216437    -0.20100
C1694       C  0.69618981  0.39646468  0.28210323     0.36100
C1695       C  0.69361002  0.41874779  0.28716756    -0.26000
C1696       C  0.71031209  0.43398047  0.28244289     0.02600
C1697       C  0.73012703  0.42687110  0.27251818     0.27400
C1698       C  0.73283180  0.40458338  0.26748084    -0.25200
N1699       N  0.67853342  0.38138125  0.28688263    -0.82600
H1700       H  0.67847079  0.42432035  0.29495690     0.13200
C1701       C  0.70687955  0.45721723  0.28860230     0.02600
N1702       N  0.74739395  0.44232742  0.26759116    -0.81100
H1703       H  0.74821118  0.39922014  0.26003413     0.18000
C1704       C  0.72087700  0.46676936  0.30448079    -0.26000
C1705       C  0.71675587  0.48798940  0.31238602     0.36100
C1706       C  0.69845066  0.49982962  0.30403661    -0.20000
C1707       C  0.68480539  0.49055349  0.28776457    -0.25200
C1708       C  0.68886712  0.46934320  0.27989384     0.27400
H1709       H  0.73453307  0.45730667  0.31130759     0.13200
N1710       N  0.73029520  0.49710948  0.32966955    -0.82500
H1711       H  0.67061444  0.49971827  0.28163368     0.18000
N1712       N  0.67456117  0.45987075  0.26343063    -0.81100
H1713       H  0.74268083  0.48603024  0.33446225     0.33700
H1714       H  0.73841022  0.51077854  0.32315983     0.38200
H1715       H  0.66194768  0.47083052  0.25895833     0.33600
H1716       H  0.68406621  0.45727191  0.24927626     0.30300
H1717       H  0.76100212  0.43444742  0.26048074     0.33600
H1718       H  0.74118250  0.45321614  0.25569388     0.30300
H1719       H  0.67238044  0.37566423  0.27178709     0.38200
H1720       H  0.66533876  0.38934672  0.29463696     0.33700
C1721       C  0.63470432  0.32217321  0.24813553    -0.20100
C1722       C  0.61781374  0.31195384  0.23544581     0.36100
C1723       C  0.59539006  0.31641411  0.24017026    -0.26000
C1724       C  0.58957028  0.33103346  0.25695699     0.02600
C1725       C  0.60629211  0.34241446  0.26844905     0.27400
C1726       C  0.62859649  0.33785353  0.26397792    -0.25200
N1727       N  0.62329775  0.29640583  0.21856505    -0.82600
H1728       H  0.58237469  0.30793588  0.23123343     0.13200
C1729       C  0.56604628  0.33352012  0.26344310     0.02600
N1730       N  0.60048648  0.35820897  0.28501484    -0.81100
H1731       H  0.64128333  0.34621685  0.27346215     0.18000
C1732       C  0.56000987  0.32789702  0.28507747    -0.26000
C1733       C  0.53856427  0.33208193  0.29288561     0.36100
C1734       C  0.52284987  0.34211365  0.27872389    -0.20000
C1735       C  0.52846315  0.34646037  0.25663984    -0.25200
C1736       C  0.55004000  0.34239637  0.24887469     0.27400
H1737       H  0.57230714  0.32069605  0.29606178     0.13200
N1738       N  0.53277083  0.32660667  0.31525345    -0.82500
H1739       H  0.51635583  0.35416097  0.24580218     0.18000
N1740       N  0.55599725  0.34800169  0.22659420    -0.81100
H1741       H  0.54628471  0.31953415  0.32354330     0.33700
H1742       H  0.52033446  0.31470768  0.31460117     0.38200
H1743       H  0.54228869  0.35435582  0.21803418     0.33600
H1744       H  0.56778166  0.36052593  0.22736687     0.30300
H1745       H  0.61474030  0.36498153  0.29215617     0.33600
H1746       H  0.59208094  0.37102843  0.27708282     0.30300
H1747       H  0.63091049  0.30504091  0.20573146     0.38200
H1748       H  0.60890811  0.28954761  0.21179169     0.33700
C1749       C  0.24466663  0.75594104  0.35727776    -0.20100
C1750       C  0.23535558  0.76761686  0.37521284     0.36100
C1751       C  0.23851472  0.75977685  0.39688384    -0.26000
C1752       C  0.25158936  0.74122239  0.40121743     0.02600
C1753       C  0.26169106  0.73015760  0.38352349     0.27400
C1754       C  0.25788778  0.73742125  0.36183771    -0.25200
N1755       N  0.22293724  0.78743618  0.37155329    -0.82600
H1756       H  0.23084652  0.76828615  0.41054333     0.13200
C1757       C  0.25485359  0.73363633  0.42435225     0.02600
N1758       N  0.27592845  0.71164758  0.38765881    -0.81100
H1759       H  0.26541934  0.72844262  0.34842323     0.18000
C1760       C  0.25023678  0.71173785  0.42978381    -0.26000
C1761       C  0.25459799  0.70352325  0.45106005     0.36100
C1762       C  0.26328602  0.71762852  0.46727733    -0.20000
C1763       C  0.26699358  0.73970471  0.46220808    -0.25200
C1764       C  0.26315358  0.74782826  0.44079814     0.27400
H1765       H  0.24350142  0.70095893  0.41726019     0.13200
N1766       N  0.25048026  0.68091608  0.45625620    -0.82500
H1767       H  0.27383857  0.75038018  0.47477027     0.18000
N1768       N  0.26831643  0.77020655  0.43552567    -0.81100
H1769       H  0.24422728  0.67270482  0.44243797     0.33700
H1770       H  0.23807469  0.68043281  0.46826328     0.38200
H1771       H  0.27419118  0.77842048  0.44950415     0.33600
H1772       H  0.28129465  0.77010471  0.42412506     0.30300
H1773       H  0.28194838  0.70525780  0.37284823     0.33600
H1774       H  0.28972967  0.71722385  0.39653863     0.30300
H1775       H  0.23400311  0.79919662  0.36557205     0.38200
H1776       H  0.21682416  0.79354434  0.38644941     0.33700
C1777       C  0.26221609  0.57128872  0.30394519    -0.20100
C1778       C  0.25567557  0.58743550  0.31924930     0.36100
C1779       C  0.24677409  0.60729474  0.31149938    -0.26000
C1780       C  0.24409437  0.61125268  0.28882831     0.02600
C1781       C  0.24913608  0.59460867  0.27358790     0.27400
C1782       C  0.25813929  0.57470526  0.28130617    -0.25200
N1783       N  0.25851567  0.58373982  0.34257790    -0.82600
H1784       H  0.24279102  0.62014034  0.32312710     0.13200
C1785       C  0.23904904  0.63386549  0.28143839     0.02600
N1786       N  0.24569535  0.59829903  0.25034984    -0.81100
H1787       H  0.26287454  0.56220994  0.26957789     0.18000
C1788       C  0.25616386  0.64607548  0.27187899    -0.26000
C1789       C  0.25362027  0.66853795  0.26766034     0.36100
C1790       C  0.23340226  0.67900856  0.27298446    -0.20000
C1791       C  0.21582476  0.66651113  0.28149354    -0.25200
C1792       C  0.21856069  0.64401337  0.28601914     0.27400
H1793       H  0.27189619  0.63817125  0.26847446     0.13200
N1794       N  0.27159435  0.68081644  0.25821122    -0.82500
H1795       H  0.20029076  0.67450152  0.28547831     0.18000
N1796       N  0.20090949  0.63154212  0.29576383    -0.81100
H1797       H  0.28537423  0.67074973  0.25556801     0.33700
H1798       H  0.26637538  0.68640164  0.24267290     0.38200
H1799       H  0.18698761  0.64144474  0.29828911     0.33600
H1800       H  0.19618483  0.61956562  0.28438652     0.30300
H1801       H  0.25033832  0.58448485  0.24133088     0.33600
H1802       H  0.22864272  0.60041071  0.24777499     0.30300
H1803       H  0.24832215  0.57062125  0.34700635     0.38200
H1804       H  0.25305060  0.59727639  0.35156429     0.33700
C1805       C  0.32776093  0.78396621  0.29804481    -0.20100
C1806       C  0.34415103  0.79963834  0.29237739     0.36100
C1807       C  0.36616547  0.79665932  0.29980549    -0.26000
C1808       C  0.37218799  0.77858847  0.31289385     0.02600
C1809       C  0.35576291  0.76353312  0.31941300     0.27400
C1810       C  0.33380087  0.76645981  0.31208844    -0.25200
N1811       N  0.33873807  0.81808368  0.27853060    -0.82600
H1812       H  0.37884319  0.80830504  0.29506450     0.13200
C1813       C  0.39593113  0.77471958  0.31853441     0.02600
N1814       N  0.36159502  0.74489878  0.33285718    -0.81100
H1815       H  0.32145056  0.75452595  0.31693336     0.18000
C1816       C  0.40243733  0.77304480  0.34078200    -0.26000
C1817       C  0.42414959  0.76672674  0.34663740     0.36100
C1818       C  0.43970154  0.76217769  0.32987417    -0.20000
C1819       C  0.43354042  0.76507571  0.30766249    -0.25200
C1820       C  0.41172035  0.77101575  0.30179802     0.27400
H1821       H  0.39032648  0.77608955  0.35358769     0.13200
N1822       N  0.43037626  0.76445019  0.36950579    -0.82500
H1823       H  0.44543563  0.76142158  0.29482107     0.18000
N1824       N  0.40526078  0.77233200  0.27891902    -0.81100
H1825       H  0.41698507  0.76818871  0.37974986     0.33700
H1826       H  0.44271891  0.77601547  0.37279827     0.38200
H1827       H  0.41881229  0.76914143  0.26869565     0.33600
H1828       H  0.39368061  0.75993351  0.27597774     0.30300
H1829       H  0.34757272  0.73544652  0.33631661     0.33600
H1830       H  0.37224697  0.73501208  0.32363991     0.30300
H1831       H  0.32856546  0.82849020  0.28769847     0.38200
H1832       H  0.35298553  0.82710079  0.27481191     0.33700
C1833       C  0.14980726  0.02412951  0.15076385    -0.20100
C1834       C  0.14844250  0.03782582  0.13191183     0.36100
C1835       C  0.12901747  0.03778719  0.11898054    -0.26000
C1836       C  0.11120549  0.02404902  0.12422346     0.02600
C1837       C  0.11272352  0.00989781  0.14257773     0.27400
C1838       C  0.13203692  0.01009400  0.15572232    -0.25200
N1839       N  0.16683312  0.05154395  0.12587520    -0.82600
H1840       H  0.12776028  0.04840057  0.10462926     0.13200
C1841       C  0.09112910  0.02475490  0.11011706     0.02600
N1842       N  0.09458589  0.99557817  0.14785596    -0.81100
H1843       H  0.13302583  0.99964569  0.17020647     0.18000
C1844       C  0.08768698  0.00820638  0.09452923    -0.26000
C1845       C  0.07010905  0.00961680  0.07922108     0.36100
C1846       C  0.05560357  0.02778616  0.07991208    -0.20000
C1847       C  0.05845918  0.04379145  0.09618450    -0.25200
C1848       C  0.07625190  0.04252772  0.11124822     0.27400
H1849       H  0.09914555  0.99453059  0.09391192     0.13200
N1850       N  0.06672409  0.99255414  0.06325466    -0.82500
H1851       H  0.04718141  0.05762086  0.09667704     0.18000
N1852       N  0.07959453  0.05938593  0.12741534    -0.81100
H1853       H  0.07815088  0.97986638  0.06575024     0.33700
H1854       H  0.07007627  0.99905337  0.04763097     0.38200
H1855       H  0.06732341  0.07143338  0.12591154     0.33600
H1856       H  0.07765538  0.05225869  0.14302171     0.30300
H1857       H  0.09840077  0.98611765  0.16181093     0.33600
H1858       H  0.08099819  0.00535418  0.15205153     0.30300
H1859       H  0.18014303  0.04130844  0.12191636     0.38200
H1860       H  0.16309761  0.06059951  0.11162867     0.33700
C1861       C  0.23893787  0.87672494  0.22110289    -0.20100
C1862       C  0.22818793  0.88270676  0.20110792     0.36100
C1863       C  0.22527195  0.90493181  0.19592071    -0.26000
C1864       C  0.23333249  0.92138377  0.20990668     0.02600
C1865       C  0.24565055  0.91546192  0.22892967     0.27400
C1866       C  0.24829566  0.89316747  0.23437867    -0.25200
N1867       N  0.21990028  0.86620222  0.18632273    -0.82600
H1868       H  0.21592381  0.90945783  0.18124291     0.13200
C1869       C  0.22693996  0.94448980  0.20523877     0.02600
N1870       N  0.25496795  0.93212747  0.24285401    -0.81100
H1871       H  0.25683151  0.88867781  0.24954468     0.18000
C1872       C  0.21488406  0.95614347  0.22117003    -0.26000
C1873       C  0.20576506  0.97684113  0.21634546     0.36100
C1874       C  0.20863862  0.98591174  0.19510245    -0.20000
C1875       C  0.22121329  0.97461902  0.17940040    -0.25200
C1876       C  0.23058643  0.95408200  0.18430760     0.27400
H1877       H  0.21180761  0.94865988  0.23712377     0.13200
N1878       N  0.19261704  0.98810933  0.23247858    -0.82500
H1879       H  0.22342387  0.98176110  0.16313786     0.18000
N1880       N  0.24347203  0.94273626  0.16802782    -0.81100
H1881       H  0.19138294  0.97878395  0.24694625     0.33700
H1882       H  0.20106436  0.00240304  0.23680161     0.38200
H1883       H  0.24444645  0.95194204  0.15346165     0.33600
H1884       H  0.25966328  0.94129964  0.17418837     0.30300
H1885       H  0.26344158  0.92508010  0.25623494     0.33600
H1886       H  0.26679029  0.94058766  0.23356974     0.30300
H1887       H  0.23354236  0.85736779  0.18051356     0.38200
H1888       H  0.21231147  0.87334501  0.17247600     0.33700
C1889       C  0.23560429  0.30433226  0.35470868    -0.20100
C1890       C  0.22854049  0.29018617  0.37182911     0.36100
C1891       C  0.23304999  0.29575202  0.39400510    -0.26000
C1892       C  0.24445715  0.31506605  0.39923986     0.02600
C1893       C  0.25040582  0.32970288  0.38226699     0.27400
C1894       C  0.24609652  0.32412418  0.36020752    -0.25200
N1895       N  0.21766609  0.26990287  0.36667002    -0.82600
H1896       H  0.22843815  0.28463943  0.40719599     0.13200
C1897       C  0.25164890  0.31932214  0.42228100     0.02600
N1898       N  0.26115878  0.35002693  0.38756465    -0.81100
H1899       H  0.25122664  0.33519882  0.34716693     0.18000
C1900       C  0.27430523  0.31775662  0.42744543    -0.26000
C1901       C  0.28235573  0.32343332  0.44846834     0.36100
C1902       C  0.26750693  0.33162902  0.46444463    -0.20000
C1903       C  0.24463641  0.33220900  0.45955454    -0.25200
C1904       C  0.23655087  0.32601788  0.43860387     0.27400
H1905       H  0.28575941  0.31218567  0.41490743     0.13200
N1906       N  0.30552632  0.32079444  0.45370835    -0.82500
H1907       H  0.23314107  0.33817208  0.47185649     0.18000
N1908       N  0.21319678  0.32690930  0.43367655    -0.81100
H1909       H  0.31415673  0.31456557  0.44016889     0.33700
H1910       H  0.30678009  0.30906761  0.46628918     0.38200
H1911       H  0.20429896  0.33199930  0.44752699     0.33600
H1912       H  0.21076687  0.33885146  0.42147538     0.30300
H1913       H  0.26458289  0.35892034  0.37318431     0.33600
H1914       H  0.24993555  0.35940788  0.39665217     0.30300
H1915       H  0.22909334  0.26001728  0.35841338     0.38200
H1916       H  0.21340470  0.26154751  0.38114712     0.33700
C1917       C  0.32957114  0.31924362  0.24723981    -0.20100
C1918       C  0.33461286  0.33864077  0.25886728     0.36100
C1919       C  0.35684837  0.34501306  0.26136758    -0.26000
C1920       C  0.37408471  0.33253809  0.25232073     0.02600
C1921       C  0.36896106  0.31403729  0.23940622     0.27400
C1922       C  0.34669939  0.30761195  0.23690127    -0.25200
N1923       N  0.31717577  0.35149024  0.26852094    -0.82600
H1924       H  0.36082881  0.35925394  0.27123224     0.13200
C1925       C  0.39732973  0.33781437  0.25845846     0.02600
N1926       N  0.38646594  0.30150141  0.22950328    -0.81100
H1927       H  0.34283186  0.29283193  0.22783378     0.18000
C1928       C  0.40997436  0.32196946  0.26975114    -0.26000
C1929       C  0.43122159  0.32685258  0.27794908     0.36100
C1930       C  0.43991414  0.34800627  0.27480961    -0.20000
C1931       C  0.42750638  0.36378257  0.26321259    -0.25200
C1932       C  0.40631379  0.35881960  0.25478693     0.27400
H1933       H  0.40290646  0.30595438  0.27283360     0.13200
N1934       N  0.44377531  0.31064507  0.28997582    -0.82500
H1935       H  0.43435434  0.38001372  0.26088160     0.18000
N1936       N  0.39380294  0.37499037  0.24268191    -0.81100
H1937       H  0.43504488  0.29588736  0.29074536     0.33700
H1938       H  0.44551645  0.31612129  0.30624054     0.38200
H1939       H  0.40276482  0.38958244  0.24145974     0.33600
H1940       H  0.39169085  0.36919796  0.22657315     0.30300
H1941       H  0.37994585  0.28825922  0.22072790     0.33600
H1942       H  0.39433652  0.31158823  0.21796840     0.30300
H1943       H  0.30721947  0.35748306  0.25563560     0.38200
H1944       H  0.32370241  0.36513194  0.27664567     0.33700
C1945       C  0.27207807  0.48962510  0.30603825    -0.20100
C1946       C  0.27629897  0.48183849  0.28461137     0.36100
C1947       C  0.27196131  0.45981014  0.27969084    -0.26000
C1948       C  0.26330922  0.44554123  0.29573976     0.02600
C1949       C  0.25883002  0.45351116  0.31713924     0.27400
C1950       C  0.26346407  0.47546321  0.32210663    -0.25200
N1951       N  0.28539133  0.49621948  0.26813001    -0.82600
H1952       H  0.27569397  0.45361736  0.26337449     0.13200
C1953       C  0.25919235  0.42229087  0.28990750     0.02600
N1954       N  0.24962250  0.43929444  0.33370303    -0.81100
H1955       H  0.26050490  0.48158172  0.33861884     0.18000
C1956       C  0.26880392  0.40563225  0.30277865    -0.26000
C1957       C  0.26533785  0.38344009  0.29785139     0.36100
C1958       C  0.25207306  0.37770227  0.27925361    -0.20000
C1959       C  0.24263821  0.39457137  0.26633944    -0.25200
C1960       C  0.24587045  0.41670250  0.27157795     0.27400
H1961       H  0.27923848  0.40999998  0.31672153     0.13200
N1962       N  0.27492511  0.36693195  0.31201001    -0.82500
H1963       H  0.23247263  0.39054896  0.25211058     0.18000
N1964       N  0.23541083  0.43355782  0.25851777    -0.81100
H1965       H  0.28219712  0.37399324  0.32599329     0.33700
H1966       H  0.28789371  0.35958094  0.30335630     0.38200
H1967       H  0.22621552  0.42675627  0.24555900     0.33600
H1968       H  0.22409513  0.44168248  0.26865178     0.30300
H1969       H  0.24746693  0.44768275  0.34856518     0.33600
H1970       H  0.23380874  0.43462980  0.32831228     0.30300
H1971       H  0.30126519  0.50081520  0.27341223     0.38200
H1972       H  0.28741593  0.48795281  0.25318041     0.33700
C1973       C  0.21022309  0.21988146  0.04432653    -0.20100
C1974       C  0.21936010  0.20402061  0.05873335     0.36100
C1975       C  0.22701394  0.21043963  0.07964537    -0.26000
C1976       C  0.22504120  0.23220484  0.08666054     0.02600
C1977       C  0.21703514  0.24827702  0.07177614     0.27400
C1978       C  0.20993640  0.24194104  0.05057614    -0.25200
N1979       N  0.22077666  0.18148718  0.05210949    -0.82600
H1980       H  0.23361527  0.19824429  0.09096950     0.13200
C1981       C  0.22925950  0.23734460  0.11024800     0.02600
N1982       N  0.21529993  0.27074131  0.07853182    -0.81100
H1983       H  0.20308408  0.25404045  0.03929589     0.18000
C1984       C  0.24482371  0.25338415  0.11607773    -0.26000
C1985       C  0.24844930  0.25909318  0.13833349     0.36100
C1986       C  0.23604558  0.24851961  0.15512436    -0.20000
C1987       C  0.22090951  0.23203997  0.14907512    -0.25200
C1988       C  0.21724966  0.22650169  0.12693438     0.27400
H1989       H  0.25412957  0.26151517  0.10316592     0.13200
N1990       N  0.26418227  0.27594713  0.14370275    -0.82500
H1991       H  0.21143815  0.22362575  0.16167340     0.18000
N1992       N  0.20097213  0.21021260  0.12128010    -0.81100
H1993       H  0.27058410  0.28302833  0.12933162     0.33700
H1994       H  0.27761757  0.26842311  0.15170092     0.38200
H1995       H  0.19370467  0.20365505  0.13548718     0.33600
H1996       H  0.18826962  0.21801525  0.11240294     0.30300
H1997       H  0.20922527  0.28045532  0.06557294     0.33600
H1998       H  0.20355459  0.27152133  0.09116115     0.30300
H1999       H  0.20464482  0.17531054  0.05119496     0.38200
H2000       H  0.22896123  0.17219542  0.06421324     0.33700
C2001       C  0.21960307  0.17742292  0.23075669    -0.20100
C2002       C  0.19816326  0.16929308  0.22592090     0.36100
C2003       C  0.19566484  0.14729177  0.21970683    -0.26000
C2004       C  0.21405904  0.13329231  0.21858217     0.02600
C2005       C  0.23535076  0.14114922  0.22387040     0.27400
C2006       C  0.23793802  0.16316886  0.22989695    -0.25200
N2007       N  0.17901551  0.18323854  0.22773410    -0.82600
H2008       H  0.17931623  0.14095862  0.21579467     0.13200
C2009       C  0.21072773  0.11040161  0.21168265     0.02600
N2010       N  0.25421947  0.12675246  0.22290511    -0.81100
H2011       H  0.25439286  0.16930467  0.23367141     0.18000
C2012       C  0.21433690  0.10476231  0.18958548    -0.26000
C2013       C  0.20990962  0.08352132  0.18215082     0.36100
C2014       C  0.20189704  0.06767229  0.19704925    -0.20000
C2015       C  0.19907297  0.07309732  0.21934968    -0.25200
C2016       C  0.20336458  0.09444360  0.22682189     0.27400
H2017       H  0.22016999  0.11701620  0.17799912     0.13200
N2018       N  0.21340910  0.07805205  0.15943717    -0.82500
H2019       H  0.19279666  0.06087251  0.23072586     0.18000
N2020       N  0.19979532  0.10017908  0.24953587    -0.81100
H2021       H  0.20362806  0.08849214  0.14969781     0.33700
H2022       H  0.23006072  0.08106987  0.15572513     0.38200
H2023       H  0.19410034  0.08663630  0.25845668     0.33600
H2024       H  0.21517975  0.10439172  0.25636512     0.30300
H2025       H  0.26875128  0.13512936  0.22712362     0.33600
H2026       H  0.25207900  0.11460196  0.23491705     0.30300
H2027       H  0.17747557  0.18758266  0.24435366     0.38200
H2028       H  0.16455542  0.17473157  0.22353011     0.33700
C2029       C  0.98099805  0.17543006  0.17670935    -0.20100
C2030       C  0.97028715  0.15492172  0.17742155     0.36100
C2031       C  0.97007319  0.14173451  0.15847462    -0.26000
C2032       C  0.98051035  0.14855189  0.13896599     0.02600
C2033       C  0.99114847  0.16906190  0.13819144     0.24800
C2034       C  0.99130603  0.18231391  0.15712158    -0.25200
N2035       N  0.96005137  0.14742277  0.19747615    -0.82600
H2036       H  0.96196942  0.12591723  0.15894575     0.13200
C2037       C  0.98085705  0.13353643  0.11981966     0.02600
N2038       N  0.00191757  0.17619722  0.11829058    -0.81100
H2039       H  0.99947922  0.19809615  0.15663585     0.18000
C2040       C  0.96969063  0.13930316  0.10023982    -0.26000
C2041       C  0.96890699  0.12488011  0.08216668     0.36100
C2042       C  0.97976670  0.10437687  0.08373447    -0.20000
C2043       C  0.99107589  0.09882481  0.10337332    -0.25200
C2044       C  0.99186525  0.11324085  0.12133159     0.27400
H2045       H  0.96118173  0.15491931  0.09926865     0.13200
N2046       N  0.95671996  0.13078299  0.06252386    -0.82500
H2047       H  0.99965379  0.08326177  0.10462437     0.18000
N2048       N  0.00393064  0.10745865  0.14109215    -0.81100
H2049       H  0.94989659  0.14644727  0.06402966     0.33700
H2050       H  0.94336280  0.11996119  0.06106361     0.38200
H2051       H  0.01104576  0.09191926  0.13960125     0.33600
H2052       H  0.01706938  0.11850775  0.14275088     0.30300
H2053       H  0.00885298  0.19172525  0.12043855     0.33600
H2054       H  0.01511319  0.16548784  0.11532081     0.30300
H2055       H  0.97260089  0.14540437  0.20932263     0.38200
H2056       H  0.95284057  0.13203814  0.19518528     0.33700
C2057       C  0.94151194  0.21709641  0.23541034    -0.20100
C2058       C  0.92622594  0.20133795  0.24301493     0.36100
C2059       C  0.90493376  0.20799458  0.24962140    -0.26000
C2060       C  0.89843925  0.23004679  0.24841626     0.02600
C2061       C  0.91406287  0.24593761  0.24166793     0.27400
C2062       C  0.93556969  0.23930486  0.23551640    -0.25200
N2063       N  0.93226505  0.17856584  0.24345556    -0.82600
H2064       H  0.89305569  0.19584478  0.25507263     0.13200
C2065       C  0.87476989  0.23595717  0.25242529     0.02600
N2066       N  0.90773758  0.26859316  0.24016179    -0.81100
H2067       H  0.94732452  0.25134925  0.22957800     0.18000
C2068       C  0.86934060  0.25155048  0.26849558    -0.26000
C2069       C  0.84722199  0.25849842  0.27159052     0.36100
C2070       C  0.83010603  0.24978692  0.25806071    -0.20000
C2071       C  0.83561472  0.23344808  0.24267461    -0.25200
C2072       C  0.85764137  0.22658204  0.23961805     0.27400
H2073       H  0.88250092  0.25849611  0.27851863     0.13200
N2074       N  0.84236963  0.27488681  0.28784412    -0.82500
H2075       H  0.82271189  0.22634582  0.23243674     0.18000
N2076       N  0.86276445  0.21058318  0.22302730    -0.81100
H2077       H  0.85698341  0.28052794  0.29526998     0.33700
H2078       H  0.83328762  0.26731611  0.30039913     0.38200
H2079       H  0.84830436  0.20517150  0.21513888     0.33600
H2080       H  0.87235466  0.21829757  0.21094418     0.30300
H2081       H  0.92112421  0.27814348  0.23494219     0.33600
H2082       H  0.89549600  0.26995584  0.22790921     0.30300
H2083       H  0.94529138  0.17670461  0.25480351     0.38200
H2084       H  0.91910957  0.16904089  0.24926445     0.33700
C2085       C  0.02503448  0.21813165  0.23123646    -0.20100
C2086       C  0.03787720  0.23335468  0.21928550     0.36100
C2087       C  0.05965829  0.23786957  0.22629748    -0.26000
C2088       C  0.06885156  0.22720805  0.24474482     0.02600
C2089       C  0.05597463  0.21221863  0.25688709     0.27400
C2090       C  0.03402192  0.20795134  0.25010217    -0.25200
N2091       N  0.02871859  0.24419032  0.20015412    -0.82600
H2092       H  0.06972911  0.24936535  0.21707416     0.13200
C2093       C  0.09239165  0.23123306  0.25036381     0.02600
N2094       N  0.06534481  0.20125724  0.27583190    -0.81100
H2095       H  0.02413672  0.19609631  0.25905244     0.18000
C2096       C  0.09789067  0.24779055  0.26535419    -0.26000
C2097       C  0.12020411  0.25337155  0.26951973     0.36100
C2098       C  0.13729716  0.24214955  0.25822538    -0.20000
C2099       C  0.13153595  0.22506011  0.24374134    -0.25200
C2100       C  0.10930629  0.21952782  0.23968719     0.27400
H2101       H  0.08467483  0.25672328  0.27340703     0.13200
N2102       N  0.12536506  0.27107206  0.28424103    -0.82500
H2103       H  0.14444091  0.21628873  0.23505837     0.18000
N2104       N  0.10377394  0.20259634  0.22417023    -0.81100
H2105       H  0.11082633  0.27854725  0.28983160     0.33700
H2106       H  0.13303998  0.26429806  0.29822004     0.38200
H2107       H  0.11815664  0.19587375  0.21735559     0.33600
H2108       H  0.09601187  0.18998240  0.23289941     0.30300
H2109       H  0.05363472  0.19084231  0.28299914     0.33600
H2110       H  0.07829148  0.19129078  0.27033593     0.30300
H2111       H  0.02633046  0.23242723  0.18788805     0.38200
H2112       H  0.04006360  0.25546307  0.19376120     0.33700
C2113       C  0.76112778  0.99391017  0.20128390    -0.20100
C2114       C  0.73808096  0.98987417  0.19948402     0.36100
C2115       C  0.72980865  0.96895560  0.20478116    -0.26000
C2116       C  0.74421100  0.95204652  0.21132832     0.02600
C2117       C  0.76709845  0.95627234  0.21370194     0.27400
C2118       C  0.77528124  0.97715815  0.20878122    -0.25200
N2119       N  0.72334192  0.00667524  0.19145042    -0.82600
H2120       H  0.71225058  0.96554352  0.20292814     0.13200
C2121       C  0.73572026  0.92951123  0.21443152     0.02600
N2122       N  0.78198264  0.93912846  0.22068643    -0.81100
H2123       H  0.79292817  0.98029029  0.21033739     0.18000
C2124       C  0.74346107  0.91314483  0.20030806    -0.26000
C2125       C  0.73906875  0.89101742  0.20452604     0.36100
C2126       C  0.72645513  0.88508290  0.22331607    -0.20000
C2127       C  0.71718517  0.90165035  0.23644624    -0.25200
C2128       C  0.72191699  0.92388051  0.23229543     0.27400
H2129       H  0.75378837  0.91766365  0.18640612     0.13200
N2130       N  0.74800652  0.87451073  0.19018339    -0.82500
H2131       H  0.70750476  0.89720757  0.25081331     0.18000
N2132       N  0.71364061  0.94064094  0.24667800    -0.81100
H2133       H  0.75721235  0.88159564  0.17742758     0.33700
H2134       H  0.73463587  0.86644793  0.18274590     0.38200
H2135       H  0.70378979  0.93378543  0.25906982     0.33600
H2136       H  0.72727712  0.94777862  0.25460702     0.30300
H2137       H  0.79833763  0.94481471  0.22131558     0.33600
H2138       H  0.77771319  0.93472686  0.23682401     0.30300
H2139       H  0.72765282  0.01008553  0.17508180     0.38200
H2140       H  0.70696362  0.00103725  0.19112125     0.33700
C2141       C  0.76528458  0.07628672  0.19957818    -0.20100
C2142       C  0.75901355  0.09227762  0.18382420     0.36100
C2143       C  0.75478846  0.11373911  0.19077989    -0.26000
C2144       C  0.75659103  0.11940229  0.21311826     0.02600
C2145       C  0.76199213  0.10328630  0.22899004     0.27400
C2146       C  0.76615703  0.08175424  0.22205321    -0.25200
N2147       N  0.75729679  0.08666716  0.16082141    -0.82600
H2148       H  0.75036834  0.12621274  0.17874398     0.13200
C2149       C  0.75343512  0.14249985  0.21945941     0.02600
N2150       N  0.76382880  0.10902592  0.25193805    -0.81100
H2151       H  0.77108029  0.06943615  0.23405568     0.18000
C2152       C  0.73441247  0.14851673  0.23109086    -0.26000
C2153       C  0.73038340  0.17048299  0.23655948     0.36100
C2154       C  0.74608437  0.18675998  0.23056878    -0.20000
C2155       C  0.76520429  0.18046766  0.21893872    -0.25200
C2156       C  0.76906197  0.15850595  0.21342188     0.27400
H2157       H  0.72244297  0.13603368  0.23549677     0.13200
N2158       N  0.71021103  0.17623211  0.24774496    -0.82500
H2159       H  0.77739774  0.19266592  0.21437297     0.18000
N2160       N  0.78885831  0.15230335  0.20183365    -0.81100
H2161       H  0.70091342  0.16226792  0.25145700     0.33700
H2162       H  0.70060248  0.18553217  0.23673435     0.38200
H2163       H  0.79865052  0.16602944  0.19851129     0.33600
H2164       H  0.79818918  0.14221860  0.21236753     0.30300
H2165       H  0.76792164  0.09526707  0.26146023     0.33600
H2166       H  0.77706517  0.11996905  0.25353469     0.30300
H2167       H  0.74453687  0.07519372  0.15920690     0.38200
H2168       H  0.75260940  0.10031399  0.15140373     0.33700
C2169       C  0.90725073  0.03024400  0.07949140    -0.20100
C2170       C  0.91038698  0.03763682  0.10142741     0.36100
C2171       C  0.89256187  0.03676738  0.11625137    -0.26000
C2172       C  0.87172897  0.02893744  0.10958867     0.02600
C2173       C  0.86860985  0.02133502  0.08787331     0.27400
C2174       C  0.88637919  0.02204839  0.07307405    -0.25200
N2175       N  0.93135280  0.04651682  0.10846890    -0.82600
H2176       H  0.89471512  0.04278474  0.13294727     0.13200
C2177       C  0.85307413  0.02951525  0.12531230     0.02600
N2178       N  0.84738197  0.01296537  0.08096322    -0.81100
H2179       H  0.88386611  0.01609829  0.05640512     0.18000
C2180       C  0.83412187  0.04180257  0.11987670    -0.26000
C2181       C  0.81604198  0.04284491  0.13430513     0.36100
C2182       C  0.81722335  0.03173954  0.15475672    -0.20000
C2183       C  0.83614757  0.01936170  0.16016149    -0.25200
C2184       C  0.85411199  0.01806923  0.14555964     0.27400
H2185       H  0.83346435  0.05057675  0.10428370     0.13200
N2186       N  0.79639971  0.05489821  0.12820672    -0.82500
H2187       H  0.83692119  0.01080919  0.17587348     0.18000
N2188       N  0.87334092  0.00515352  0.15110603    -0.81100
H2189       H  0.79824892  0.06211724  0.11263147     0.33700
H2190       H  0.78335982  0.04370167  0.12682619     0.38200
H2191       H  0.87149675  0.99785542  0.16664450     0.33600
H2192       H  0.87433397  0.99242205  0.13966110     0.30300
H2193       H  0.84779835  0.00819375  0.06439656     0.33600
H2194       H  0.84422533  0.99884651  0.09023585     0.30300
H2195       H  0.93388983  0.06106031  0.09967626     0.38200
H2196       H  0.93089926  0.05075866  0.12518306     0.33700
C2197       C  0.02416524  0.80715937  0.18822820    -0.20100
C2198       C  0.03848886  0.82032769  0.20092682     0.36100
C2199       C  0.05972473  0.81270538  0.20652441    -0.26000
C2200       C  0.06701955  0.79204129  0.19968942     0.02600
C2201       C  0.05252814  0.77841049  0.18761051     0.27400
C2202       C  0.03107270  0.78607080  0.18209270    -0.25200
N2203       N  0.03143981  0.84150332  0.20818036    -0.82600
H2204       H  0.07076672  0.82314251  0.21596027     0.13200
C2205       C  0.09039633  0.78580554  0.20425815     0.02600
N2206       N  0.05985081  0.75716246  0.18059787    -0.81100
H2207       H  0.02002786  0.77594007  0.17233874     0.18000
C2208       C  0.09537442  0.77013540  0.22053255    -0.26000
C2209       C  0.11752531  0.76592133  0.22699805     0.36100
C2210       C  0.13499369  0.77793305  0.21705831    -0.20000
C2211       C  0.12977675  0.79287199  0.20001444    -0.25200
C2212       C  0.10775312  0.79682543  0.19348078     0.27400
H2213       H  0.08187919  0.76165700  0.22865131     0.13200
N2214       N  0.12209924  0.75028873  0.24425277    -0.82500
H2215       H  0.14295043  0.80186557  0.19193549     0.18000
N2216       N  0.10282905  0.81237987  0.17623048    -0.81100
H2217       H  0.10732354  0.74409060  0.25073945     0.33700
H2218       H  0.13020678  0.73700218  0.23702868     0.38200
H2219       H  0.11743171  0.81927522  0.17007695     0.33600
H2220       H  0.09551615  0.80381197  0.16316521     0.30300
H2221       H  0.04721530  0.74920442  0.17187165     0.33600
H2222       H  0.07291102  0.75944423  0.16951705     0.30300
H2223       H  0.04258122  0.85310518  0.20203983     0.38200
H2224       H  0.03236279  0.84179319  0.22543474     0.33700
C2225       C  0.94046935  0.80627248  0.18684546    -0.20100
C2226       C  0.92344601  0.80249769  0.17116647     0.36100
C2227       C  0.90189258  0.79772419  0.17844245    -0.26000
C2228       C  0.89711569  0.79635098  0.20102742     0.02600
C2229       C  0.91427978  0.79911491  0.21671328     0.27400
C2230       C  0.93589887  0.80390283  0.20944411    -0.25200
N2231       N  0.92808960  0.80398207  0.14792594    -0.82600
H2232       H  0.88863001  0.79545697  0.16649551     0.13200
C2233       C  0.87377291  0.79332264  0.20796351     0.02600
N2234       N  0.90949601  0.79778141  0.23992215    -0.81100
H2235       H  0.94893626  0.80696233  0.22144789     0.18000
C2236       C  0.86697216  0.77326463  0.21690602    -0.26000
C2237       C  0.84492483  0.76998877  0.22391223     0.36100
C2238       C  0.82932127  0.78733966  0.22197755    -0.20000
C2239       C  0.83638914  0.80729629  0.21248619    -0.25200
C2240       C  0.85833066  0.81044204  0.20553840     0.27400
H2241       H  0.87899258  0.76012939  0.21847764     0.13200
N2242       N  0.83849131  0.74907232  0.23270248    -0.82500
H2243       H  0.82485394  0.82080594  0.21067828     0.18000
N2244       N  0.86506276  0.83102850  0.19611571    -0.81100
H2245       H  0.85142873  0.73775373  0.23119648     0.33700
H2246       H  0.83596938  0.75103044  0.24965490     0.38200
H2247       H  0.85164488  0.84188121  0.19519691     0.33600
H2248       H  0.87668017  0.83803752  0.20685231     0.30300
H2249       H  0.92394521  0.80013493  0.24926760     0.33600
H2250       H  0.89880676  0.81070799  0.24374087     0.30300
H2251       H  0.93942685  0.79159194  0.14415657     0.38200
H2252       H  0.91377153  0.80091473  0.13859959     0.33700
C2253       C  0.98129857  0.86481181  0.14711471    -0.20100
C2254       C  0.99349010  0.88370162  0.15289799     0.36100
C2255       C  0.99207107  0.90241808  0.13938757    -0.26000
C2256       C  0.97860060  0.90263478  0.12044504     0.02600
C2257       C  0.96607547  0.88400831  0.11487036     0.27400
C2258       C  0.96757967  0.86525132  0.12824688    -0.25200
N2259       N  0.00707835  0.88387845  0.17250241    -0.82600
H2260       H  0.00171363  0.91682782  0.14344021     0.13200
C2261       C  0.97921375  0.92184404  0.10559585     0.02600
N2262       N  0.95208277  0.88420890  0.09553820    -0.81100
H2263       H  0.95817019  0.85079729  0.12382697     0.18000
C2264       C  0.99046003  0.91990010  0.08557747    -0.26000
C2265       C  0.99241062  0.93776841  0.07116581     0.36100
C2266       C  0.98233898  0.95799517  0.07667257    -0.20000
C2267       C  0.97117024  0.95992878  0.09691543    -0.25200
C2268       C  0.96952080  0.94197183  0.11146898     0.27400
H2269       H  0.99812797  0.90440700  0.08140430     0.13200
N2270       N  0.00498915  0.93553045  0.05117053    -0.82500
H2271       H  0.96332113  0.97530045  0.10116757     0.18000
N2272       N  0.95796311  0.94398317  0.13207471    -0.81100
H2273       H  0.01124933  0.91964332  0.04962652     0.33700
H2274       H  0.01871166  0.94587995  0.05252208     0.38200
H2275       H  0.95183298  0.95988032  0.13395980     0.33600
H2276       H  0.94417191  0.93362807  0.13142800     0.30300
H2277       H  0.94406482  0.86915425  0.09369635     0.33600
H2278       H  0.93965160  0.89588848  0.09803990     0.30300
H2279       H  0.01501623  0.89898204  0.17426513     0.38200
H2280       H  0.99656316  0.88213111  0.18607990     0.33700
C2281       C  0.17759243  0.98468991  0.80341780    -0.20100
C2282       C  0.18597976  0.96905931  0.81850785     0.36100
C2283       C  0.19013508  0.94777664  0.81118429    -0.26000
C2284       C  0.18602063  0.94204511  0.78919715     0.02600
C2285       C  0.17761621  0.95756478  0.77408599     0.27400
C2286       C  0.17355960  0.97893707  0.78135951    -0.25200
N2287       N  0.19031255  0.97494616  0.84110977    -0.82600
H2288       H  0.19666443  0.93559785  0.82257349     0.13200
C2289       C  0.19097329  0.91964875  0.78230236     0.02600
N2290       N  0.17296932  0.95142478  0.75162506    -0.81100
H2291       H  0.16695051  0.99105894  0.76995970     0.18000
C2292       C  0.17426955  0.90383666  0.78350688    -0.26000
C2293       C  0.17883323  0.88190897  0.77855047     0.36100
C2294       C  0.20060542  0.87593339  0.77232741    -0.20000
C2295       C  0.21713825  0.89204976  0.77069548    -0.25200
C2296       C  0.21254968  0.91388350  0.77582985     0.27400
H2297       H  0.15774260  0.90862331  0.78860458     0.13200
N2298       N  0.16150497  0.86578850  0.77980035    -0.82500
H2299       H  0.23386582  0.88749606  0.76604899     0.18000
N2300       N  0.22979906  0.93012064  0.77521936    -0.81100
H2301       H  0.14661904  0.87291358  0.78494459     0.33700
H2302       H  0.15870521  0.85991845  0.76382042     0.38200
H2303       H  0.24488178  0.92307661  0.77054402     0.33600
H2304       H  0.22563358  0.94150171  0.76293314     0.30300
H2305       H  0.16651326  0.96473081  0.74275623     0.33600
H2306       H  0.18803438  0.94735155  0.74419238     0.30300
H2307       H  0.20296677  0.98663899  0.84111950     0.38200
H2308       H  0.19630912  0.96147559  0.85004269     0.33700
C2309       C  0.19061093  0.06501668  0.80031231    -0.20100
C2310       C  0.20786026  0.07495282  0.81239455     0.36100
C2311       C  0.21566596  0.09548107  0.80563279    -0.26000
C2312       C  0.20631078  0.10598250  0.78718807     0.02600
C2313       C  0.18962936  0.09564742  0.77464450     0.27400
C2314       C  0.18203085  0.07501155  0.78126136    -0.25200
N2315       N  0.21657550  0.06454704  0.83196011    -0.82600
H2316       H  0.22840015  0.10371658  0.81519202     0.13200
C2317       C  0.21232995  0.12877049  0.78255140     0.02600
N2318       N  0.17991432  0.10657355  0.75584200    -0.81100
H2319       H  0.16854757  0.06725000  0.77232888     0.18000
C2320       C  0.22676134  0.13345817  0.76520225    -0.26000
C2321       C  0.23167595  0.15518661  0.75946552     0.36100
C2322       C  0.22228177  0.17253011  0.77192305    -0.20000
C2323       C  0.20789011  0.16744962  0.78946580    -0.25200
C2324       C  0.20260037  0.14577500  0.79467999     0.27400
H2325       H  0.23377899  0.12008410  0.75581087     0.13200
N2326       N  0.24578054  0.15950735  0.74086022    -0.82500
H2327       H  0.20046066  0.18041019  0.79910235     0.18000
N2328       N  0.18719473  0.14089831  0.81209590    -0.81100
H2329       H  0.25193116  0.14492238  0.73428005     0.33700
H2330       H  0.23588750  0.16657787  0.72849317     0.38200
H2331       H  0.18160677  0.15529532  0.81952417     0.33600
H2332       H  0.17325558  0.13356750  0.80490566     0.30300
H2333       H  0.16787648  0.09667219  0.74842236     0.33600
H2334       H  0.17162399  0.12046575  0.76157551     0.30300
H2335       H  0.22410890  0.04991368  0.82713055     0.38200
H2336       H  0.22903284  0.07415343  0.83908642     0.33700
C2337       C  0.13637074  0.03454447  0.85289929    -0.20100
C2338       C  0.11752947  0.04794621  0.84973421     0.36100
C2339       C  0.10233787  0.05019440  0.86700712    -0.26000
C2340       C  0.10569121  0.03906500  0.88699161     0.02600
C2341       C  0.12458719  0.02589945  0.89027639     0.27400
C2342       C  0.13984673  0.02374792  0.87309812    -0.25200
N2343       N  0.11363124  0.05861996  0.82884341    -0.82600
H2344       H  0.08749096  0.06000689  0.86469101     0.13200
C2345       C  0.08812881  0.03940452  0.90352757     0.02600
N2346       N  0.12778110  0.01435370  0.91080653    -0.81100
H2347       H  0.15442351  0.01353599  0.87535473     0.18000
C2348       C  0.07265385  0.02238479  0.90336351    -0.26000
C2349       C  0.05602869  0.02124309  0.91924853     0.36100
C2350       C  0.05451856  0.03817501  0.93507944    -0.20000
C2351       C  0.07016324  0.05515777  0.93529122    -0.25200
C2352       C  0.08713780  0.05588569  0.91960422     0.27400
H2353       H  0.07386895  0.00958503  0.89106687     0.13200
N2354       N  0.04154272  0.00250029  0.91904358    -0.82500
H2355       H  0.06904029  0.06788090  0.94767796     0.18000
N2356       N  0.10323675  0.07323211  0.91980367    -0.81100
H2357       H  0.05145031  0.98850602  0.92060009     0.33700
H2358       H  0.03102442  0.00219508  0.93265337     0.38200
H2359       H  0.09998027  0.08413815  0.93266329     0.33600
H2360       H  0.11874786  0.06626168  0.92321612     0.30300
H2361       H  0.14238084  0.00508782  0.91039032     0.33600
H2362       H  0.12995399  0.02600456  0.92322855     0.30300
H2363       H  0.11116611  0.04643631  0.81700122     0.38200
H2364       H  0.09899581  0.06783036  0.82930528     0.33700
C2365       C  0.93535614  0.84423063  0.79624624    -0.20100
C2366       C  0.91857877  0.85984561  0.79183850     0.36100
C2367       C  0.89670034  0.85280221  0.78815378    -0.26000
C2368       C  0.89120060  0.83051073  0.78895379     0.02600
C2369       C  0.90805099  0.81488302  0.79316570     0.27400
C2370       C  0.93000003  0.82191875  0.79653485    -0.25200
N2371       N  0.92386644  0.88277508  0.79107584    -0.82600
H2372       H  0.88386884  0.86474597  0.78448836     0.13200
C2373       C  0.86784196  0.82375396  0.78482968     0.02600
N2374       N  0.90272652  0.79198327  0.79443738    -0.81100
H2375       H  0.94287149  0.81000745  0.80018697     0.18000
C2376       C  0.86342087  0.80825827  0.76841540    -0.26000
C2377       C  0.84176006  0.80085454  0.76422731     0.36100
C2378       C  0.82369965  0.81005257  0.77605102    -0.20000
C2379       C  0.82825459  0.82592176  0.79227288    -0.25200
C2380       C  0.85008039  0.83259596  0.79700729     0.27400
H2381       H  0.87708510  0.80165321  0.75895332     0.13200
N2382       N  0.83830707  0.78388891  0.74817183    -0.82500
H2383       H  0.81477227  0.83300253  0.80162437     0.18000
N2384       N  0.85429081  0.84810661  0.81433399    -0.81100
H2385       H  0.85314576  0.77994238  0.74022174     0.33700
H2386       H  0.83360351  0.76980045  0.75681029     0.38200
H2387       H  0.83943613  0.85312482  0.82161517     0.33600
H2388       H  0.86346032  0.84007830  0.82665667     0.30300
H2389       H  0.91699838  0.78267925  0.79754830     0.33600
H2390       H  0.89226645  0.78974279  0.80798617     0.30300
H2391       H  0.93463069  0.88526113  0.77781166     0.38200
H2392       H  0.90963886  0.89209465  0.78780965     0.33700
C2393       C  0.01811413  0.84049156  0.78566556    -0.20100
C2394       C  0.03508291  0.85466609  0.77829544     0.36100
C2395       C  0.05478580  0.84580242  0.76972668    -0.26000
C2396       C  0.05771564  0.82309640  0.76802606     0.02600
C2397       C  0.04018203  0.80899644  0.77397483     0.27400
C2398       C  0.02056634  0.81782861  0.78278214    -0.25200
N2399       N  0.03232716  0.87798798  0.77981687    -0.82600
H2400       H  0.06824636  0.85661085  0.76511078     0.13200
C2401       C  0.08003622  0.81429297  0.76256037     0.02600
N2402       N  0.04265634  0.78573093  0.77154069    -0.81100
H2403       H  0.00747634  0.80693884  0.78818408     0.18000
C2404       C  0.09099639  0.80142308  0.77843908    -0.26000
C2405       C  0.11286584  0.79430401  0.77523545     0.36100
C2406       C  0.12418329  0.80028534  0.75573508    -0.20000
C2407       C  0.11298651  0.81243668  0.73938052    -0.25200
C2408       C  0.09097513  0.81961765  0.74266804     0.27400
H2409       H  0.08262189  0.79743487  0.79373892     0.13200
N2410       N  0.12380358  0.78126582  0.79189526    -0.82500
H2411       H  0.12171888  0.81709080  0.72448170     0.18000
N2412       N  0.07982060  0.83257998  0.72613102    -0.81100
H2413       H  0.12718659  0.76596977  0.78499528     0.33700
H2414       H  0.11329373  0.77848843  0.80530848     0.38200
H2415       H  0.09017553  0.83516810  0.71256191     0.33600
H2416       H  0.06625791  0.82353175  0.72040070     0.30300
H2417       H  0.02832562  0.77762418  0.77675642     0.33600
H2418       H  0.04431034  0.78250286  0.75467501     0.30300
H2419       H  0.01906026  0.88239609  0.76949836     0.38200
H2420       H  0.04633438  0.88608344  0.77378169     0.33700
C2421       C  0.98543099  0.88712310  0.84528163    -0.20100
C2422       C  0.97368805  0.88441329  0.86528408     0.36100
C2423       C  0.97527411  0.90052768  0.88162456    -0.26000
C2424       C  0.98844409  0.91908446  0.87846632     0.02600
C2425       C  0.00065401  0.92164419  0.85887211     0.27400
C2426       C  0.99912287  0.90551902  0.84245861    -0.25200
N2427       N  0.96020271  0.86535026  0.86891596    -0.82600
H2428       H  0.96606469  0.89874842  0.89686525     0.13200
C2429       C  0.98857814  0.93592606  0.89576029     0.02600
N2430       N  0.01444234  0.94057969  0.85573614    -0.81100
H2431       H  0.00806492  0.90765155  0.82711389     0.18000
C2432       C  0.00363388  0.93406118  0.91339670    -0.26000
C2433       C  0.00276806  0.94863749  0.93126425     0.36100
C2434       C  0.98670548  0.96552152  0.93105912    -0.20000
C2435       C  0.97201035  0.96757855  0.91311398    -0.25200
C2436       C  0.97257367  0.95272233  0.89557061     0.27400
H2437       H  0.01574095  0.92092051  0.91339310     0.13200
N2438       N  0.01845063  0.94670910  0.94919030    -0.82500
H2439       H  0.95968695  0.98052829  0.91307295     0.18000
N2440       N  0.95649981  0.95411348  0.87795731    -0.81100
H2441       H  0.03007923  0.93443510  0.94591452     0.33700
H2442       H  0.00977612  0.94150083  0.96315707     0.38200
H2443       H  0.94546464  0.96703835  0.88067017     0.33600
H2444       H  0.96496614  0.95782291  0.86339894     0.30300
H2445       H  0.02250947  0.93981379  0.84050288     0.33600
H2446       H  0.00411877  0.95432813  0.85505717     0.30300
H2447       H  0.97075470  0.85175427  0.86926805     0.38200
H2448       H  0.95251926  0.86604294  0.88435107     0.33700
C2449       C  0.94434286  0.21517785  0.77666640    -0.20100
C2450       C  0.92670825  0.20112790  0.77084737     0.36100
C2451       C  0.90626634  0.21012428  0.76413013    -0.26000
C2452       C  0.90320453  0.23286101  0.76287876     0.02600
C2453       C  0.92114514  0.24690364  0.76774531     0.27400
C2454       C  0.94156812  0.23790465  0.77463371    -0.25200
N2455       N  0.92963030  0.17779285  0.77195818    -0.82600
H2456       H  0.89245876  0.19938048  0.76040172     0.13200
C2457       C  0.88063725  0.24161326  0.75820829     0.02600
N2458       N  0.91841752  0.27021441  0.76590878    -0.81100
H2459       H  0.95520738  0.24863763  0.77897060     0.18000
C2460       C  0.87014148  0.25421244  0.77440935    -0.26000
C2461       C  0.84803574  0.26107222  0.77177068     0.36100
C2462       C  0.83611702  0.25506610  0.75257826    -0.20000
C2463       C  0.84684369  0.24322269  0.73593636    -0.25200
C2464       C  0.86903924  0.23636480  0.73859924     0.27400
H2465       H  0.87908103  0.25821903  0.78944724     0.13200
N2466       N  0.83755694  0.27401455  0.78855984    -0.82500
H2467       H  0.83766041  0.23870285  0.72119977     0.18000
N2468       N  0.87977899  0.22385919  0.72166464    -0.81100
H2469       H  0.84855571  0.27695301  0.80164176     0.33700
H2470       H  0.83374661  0.28926015  0.78158987     0.38200
H2471       H  0.86894854  0.22126164  0.70837132     0.33600
H2472       H  0.89292508  0.23325372  0.71562247     0.30300
H2473       H  0.93314352  0.27823327  0.77017665     0.33600
H2474       H  0.91530461  0.27386173  0.74927996     0.30300
H2475       H  0.94175418  0.17356003  0.76043154     0.38200
H2476       H  0.91506515  0.16977656  0.76716665     0.33700
C2477       C  0.02753694  0.20808516  0.77443120    -0.20100
C2478       C  0.03413726  0.23000788  0.77092678     0.36100
C2479       C  0.05598933  0.23446247  0.76414474    -0.26000
C2480       C  0.07140486  0.21751122  0.76095168     0.02600
C2481       C  0.06448886  0.19558424  0.76351915     0.27400
C2482       C  0.04266196  0.19112439  0.77021412    -0.25200
N2483       N  0.01899417  0.24768914  0.77519342    -0.82600
H2484       H  0.06134401  0.25129554  0.76238420     0.13200
C2485       C  0.09513503  0.22299027  0.75689616     0.02600
N2486       N  0.07982425  0.17795323  0.75974669    -0.81100
H2487       H  0.03751841  0.17430085  0.77263775     0.18000
C2488       C  0.11133601  0.21462919  0.77135330    -0.26000
C2489       C  0.13386192  0.21989730  0.76892504     0.36100
C2490       C  0.14039670  0.23484226  0.75215412    -0.20000
C2491       C  0.12415700  0.24281122  0.73734252    -0.25200
C2492       C  0.10165875  0.23687526  0.73942435     0.27400
H2493       H  0.10632565  0.20399524  0.78479991     0.13200
N2494       N  0.15002687  0.21004772  0.78348980    -0.82500
H2495       H  0.12891567  0.25405379  0.72432524     0.18000
N2496       N  0.08539060  0.24495489  0.72394312    -0.81100
H2497       H  0.14239582  0.19980648  0.79505305     0.33700
H2498       H  0.16022432  0.20003424  0.77390680     0.38200
H2499       H  0.09284887  0.25499189  0.71209240     0.33600
H2500       H  0.07892253  0.23148502  0.71548811     0.30300
H2501       H  0.07220917  0.16283426  0.76253391     0.33600
H2502       H  0.08419308  0.17839082  0.74305694     0.30300
H2503       H  0.01553561  0.24758494  0.79210511     0.38200
H2504       H  0.02641813  0.26276299  0.77172348     0.33700
C2505       C  0.98443350  0.17190442  0.83457561    -0.20100
C2506       C  0.99003908  0.14950599  0.83481111     0.36100
C2507       C  0.98906364  0.13774947  0.85481501    -0.26000
C2508       C  0.98248128  0.14795215  0.87450945     0.02600
C2509       C  0.97709337  0.17042023  0.87425311     0.27400
C2510       C  0.97811280  0.18217026  0.85425531    -0.25200
N2511       N  0.99642254  0.13879020  0.81471037    -0.82600
H2512       H  0.99327587  0.12050062  0.85506451     0.13200
C2513       C  0.98061098  0.13467854  0.89506839     0.02600
N2514       N  0.97030912  0.18110969  0.89422610    -0.81100
H2515       H  0.97388910  0.19941500  0.85394905     0.18000
C2516       C  0.99339321  0.14002754  0.91381076    -0.26000
C2517       C  0.99281614  0.12694604  0.93306794     0.36100
C2518       C  0.97899125  0.10832815  0.93352943    -0.20000
C2519       C  0.96573346  0.10349645  0.91500319    -0.25200
C2520       C  0.96634907  0.11643995  0.89585414     0.27400
H2521       H  0.00436012  0.15404826  0.91312793     0.13200
N2522       N  0.00677251  0.13202045  0.95169970    -0.82500
H2523       H  0.95502166  0.08925845  0.91536899     0.18000
N2524       N  0.95266655  0.11103847  0.87710487    -0.81100
H2525       H  0.01586731  0.14627297  0.94867436     0.33700
H2526       H  0.01833816  0.11934479  0.95348777     0.38200
H2527       H  0.94331754  0.09697693  0.88027682     0.33600
H2528       H  0.94133874  0.12383484  0.87478166     0.30300
H2529       H  0.96709523  0.19768504  0.89125471     0.33600
H2530       H  0.95530525  0.17408985  0.89916257     0.30300
H2531       H  0.98273082  0.13911708  0.80401114     0.38200
H2532       H  0.00004624  0.12230083  0.81771900     0.33700
C2533       C  0.73730077  0.88259523  0.76495077    -0.20100
C2534       C  0.73409628  0.89309391  0.78544652     0.36100
C2535       C  0.73978497  0.91524481  0.78769130    -0.26000
C2536       C  0.74858278  0.92711349  0.76990677     0.02600
C2537       C  0.75059409  0.91700432  0.74910158     0.27400
C2538       C  0.74478778  0.89482041  0.74678364    -0.25200
N2539       N  0.72540806  0.88111781  0.80397820    -0.82600
H2540       H  0.73817372  0.92309291  0.80363315     0.13200
C2541       C  0.75752118  0.94933787  0.77414717     0.02600
N2542       N  0.75901788  0.92918421  0.73060909    -0.81100
H2543       H  0.74708909  0.88678573  0.73102907     0.18000
C2544       C  0.78042164  0.95292765  0.77201377    -0.26000
C2545       C  0.79017310  0.97255511  0.77922787     0.36100
C2546       C  0.77678516  0.98867683  0.78916162    -0.20000
C2547       C  0.75368699  0.98565222  0.78996373    -0.25200
C2548       C  0.74390308  0.96614413  0.78246767     0.27400
H2549       H  0.79081454  0.94005577  0.76540394     0.13200
N2550       N  0.81360081  0.97613678  0.77669189    -0.82500
H2551       H  0.74335375  0.99825444  0.79715894     0.18000
N2552       N  0.72028317  0.96308773  0.78367941    -0.81100
H2553       H  0.82105581  0.96268764  0.76908100     0.33700
H2554       H  0.81557359  0.98942523  0.76594001     0.38200
H2555       H  0.71264183  0.97698468  0.79022324     0.33600
H2556       H  0.71431070  0.96145649  0.76751186     0.30300
H2557       H  0.75964905  0.91933064  0.71654023     0.33600
H2558       H  0.74769109  0.94173427  0.72713475     0.30300
H2559       H  0.70923053  0.87634851  0.79992667     0.38200
H2560       H  0.72421232  0.89118534  0.81785317     0.33700
C2561       C  0.77994155  0.06997031  0.79677453    -0.20100
C2562       C  0.78887774  0.08036734  0.77802364     0.36100
C2563       C  0.78246321  0.10192815  0.77297939    -0.26000
C2564       C  0.76730127  0.11319020  0.78631778     0.02600
C2565       C  0.75796018  0.10255874  0.80480017     0.27400
C2566       C  0.76443863  0.08099175  0.80987167    -0.25200
N2567       N  0.80496732  0.06924062  0.76466183    -0.82600
H2568       H  0.78951141  0.11014042  0.75875162     0.13200
C2569       C  0.76225313  0.13644476  0.78126668     0.02600
N2570       N  0.74234065  0.11385774  0.81856118    -0.81100
H2571       H  0.75770116  0.07284237  0.82428634     0.18000
C2572       C  0.74042987  0.14276294  0.77610111    -0.26000
C2573       C  0.73522641  0.16470410  0.77113471     0.36100
C2574       C  0.75233463  0.18056246  0.77114570    -0.20000
C2575       C  0.77410188  0.17414538  0.77651523    -0.25200
C2576       C  0.77922808  0.15229624  0.78160380     0.27400
H2577       H  0.72744529  0.13050657  0.77595911     0.13200
N2578       N  0.71264686  0.17093837  0.76646091    -0.82500
H2579       H  0.78725633  0.18622387  0.77656417     0.18000
N2580       N  0.80161180  0.14611521  0.78721414    -0.81100
H2581       H  0.70220393  0.15729296  0.76696124     0.33700
H2582       H  0.70747827  0.18133668  0.77911765     0.38200
H2583       H  0.81216024  0.15967141  0.78651739     0.33600
H2584       H  0.80165283  0.14073607  0.80363874     0.30300
H2585       H  0.73698232  0.10368665  0.83139860     0.33600
H2586       H  0.75066399  0.12695692  0.82594024     0.30300
H2587       H  0.79701042  0.05597368  0.75720083     0.38200
H2588       H  0.81036576  0.07940900  0.75183884     0.33700
C2589       C  0.82830307  0.02332768  0.84480263    -0.20100
C2590       C  0.84815236  0.03557534  0.84374869     0.36100
C2591       C  0.86315691  0.03499119  0.86159617    -0.26000
C2592       C  0.85896793  0.02224460  0.88041986     0.02600
C2593       C  0.83950530  0.00945466  0.88130213     0.27400
C2594       C  0.82434076  0.01010461  0.86344505    -0.25200
N2595       N  0.85300555  0.04855237  0.82450461    -0.82600
H2596       H  0.87818314  0.04470147  0.86094109     0.13200
C2597       C  0.87517670  0.02293148  0.89904293     0.02600
N2598       N  0.83522431  0.99597609  0.90032179    -0.81100
H2599       H  0.80915495  0.00066019  0.86426482     0.18000
C2600       C  0.86900904  0.03245907  0.91914892    -0.26000
C2601       C  0.88466920  0.03573428  0.93621563     0.36100
C2602       C  0.90698407  0.02902073  0.93317388    -0.20000
C2603       C  0.91289497  0.01904250  0.91313639    -0.25200
C2604       C  0.89724092  0.01586556  0.89613718     0.27400
H2605       H  0.85206892  0.03805884  0.92121017     0.13200
N2606       N  0.87807465  0.04638641  0.95629106    -0.82500
H2607       H  0.92980341  0.01349410  0.91075600     0.18000
N2608       N  0.90364286  0.00555470  0.87583189    -0.81100
H2609       H  0.86111349  0.05005519  0.95593206     0.33700
H2610       H  0.88643298  0.06135370  0.95707973     0.38200
H2611       H  0.92050257  0.00146659  0.87619297     0.33600
H2612       H  0.89488181  0.99084356  0.87463542     0.30300
H2613       H  0.82019575  0.98763235  0.89841421     0.33600
H2614       H  0.84768612  0.98406230  0.90114159     0.30300
H2615       H  0.85484253  0.03785111  0.81120114     0.38200
H2616       H  0.86816992  0.05665646  0.82639765     0.33700
C2617       C  0.22139859  0.80554525  0.15424906    -0.20100
C2618       C  0.23951575  0.80945646  0.13998144     0.36100
C2619       C  0.23538811  0.81736925  0.11851645    -0.26000
C2620       C  0.21364124  0.82085598  0.11098781     0.02600
C2621       C  0.19559268  0.81674303  0.12505556     0.27400
C2622       C  0.19965998  0.80922549  0.14658521    -0.25200
N2623       N  0.26196666  0.80603063  0.14743141    -0.82600
H2624       H  0.24912491  0.82058325  0.10748127     0.13200
C2625       C  0.20983205  0.82860690  0.08819571     0.02600
N2626       N  0.17323128  0.82034376  0.11740395    -0.81100
H2627       H  0.18575309  0.80617373  0.15745837     0.18000
C2628       C  0.19959218  0.81453119  0.07303843    -0.26000
C2629       C  0.19434945  0.82167577  0.05170383     0.36100
C2630       C  0.19966310  0.84326549  0.04529283    -0.20000
C2631       C  0.21022727  0.85725157  0.06034871    -0.25200
C2632       C  0.21530949  0.85013635  0.08187080     0.27400
H2633       H  0.19522813  0.79803614  0.07802066     0.13200
N2634       N  0.18281086  0.80703455  0.03722881    -0.82500
H2635       H  0.21399796  0.87390304  0.05541530     0.18000
N2636       N  0.22546009  0.86476450  0.09748026    -0.81100
H2637       H  0.16787009  0.81439426  0.03236874     0.33700
H2638       H  0.19248990  0.80451017  0.02319905     0.38200
H2639       H  0.22843408  0.88000113  0.09015393     0.33600
H2640       H  0.21406730  0.86744087  0.11016540     0.30300
H2641       H  0.16183550  0.81631411  0.12973660     0.33600
H2642       H  0.17138787  0.83709882  0.11432117     0.30300
H2643       H  0.26442814  0.78914123  0.14874732     0.38200
H2644       H  0.27321729  0.81148157  0.13552469     0.33700
C2645       C  0.20463767  0.84590768  0.96276705    -0.20100
C2646       C  0.20391058  0.82366627  0.95659063     0.36100
C2647       C  0.21136237  0.81757162  0.93551111    -0.26000
C2648       C  0.21922384  0.83331926  0.92053986     0.02600
C2649       C  0.22068211  0.85539863  0.92705913     0.27400
C2650       C  0.21335313  0.86146466  0.94811144    -0.25200
N2651       N  0.19478998  0.80755950  0.97134842    -0.82600
H2652       H  0.21003290  0.80066987  0.93032216     0.13200
C2653       C  0.22346211  0.82696299  0.89733985     0.02600
N2654       N  0.22913057  0.87160939  0.91202688    -0.81100
H2655       H  0.21403142  0.87849322  0.95300697     0.18000
C2656       C  0.21070964  0.83683867  0.88065537    -0.26000
C2657       C  0.21313689  0.83087295  0.85848648     0.36100
C2658       C  0.22823979  0.81399443  0.85285738    -0.20000
C2659       C  0.24153935  0.80456409  0.86956549    -0.25200
C2660       C  0.23933273  0.81096426  0.89178574     0.27400
H2661       H  0.19858132  0.84918582  0.88502958     0.13200
N2662       N  0.20026495  0.84193706  0.84171942    -0.82500
H2663       H  0.25325505  0.79178276  0.86539134     0.18000
N2664       N  0.25295708  0.80121118  0.90874536    -0.81100
H2665       H  0.18978249  0.85364541  0.84870738     0.33700
H2666       H  0.21133088  0.85046322  0.83160298     0.38200
H2667       H  0.26379220  0.78971206  0.90194210     0.33600
H2668       H  0.26284343  0.81358420  0.91547730     0.30300
H2669       H  0.22890887  0.88711030  0.91927582     0.33600
H2670       H  0.24577121  0.86782106  0.90901961     0.30300
H2671       H  0.17798967  0.81126279  0.97351716     0.38200
H2672       H  0.19543725  0.79199716  0.96426064     0.33700
C2673       C  0.15001566  0.89287269  0.00229437    -0.20100
C2674       C  0.15025061  0.91186099  0.01552493     0.36100
C2675       C  0.13178200  0.92591460  0.01522122    -0.26000
C2676       C  0.11326498  0.92140243  0.00188193     0.02600
C2677       C  0.11306184  0.90259436  0.98852960     0.27400
C2678       C  0.13154262  0.88857223  0.98874039    -0.25200
N2679       N  0.16926210  0.91684175  0.02906407    -0.82600
H2680       H  0.13179241  0.94049505  0.02535964     0.13200
C2681       C  0.09405636  0.93644083  0.00229959     0.02600
N2682       N  0.09392546  0.89765323  0.97515994    -0.81100
H2683       H  0.13130220  0.87389052  0.97875880     0.18000
C2684       C  0.08927326  0.94934818  0.98365156    -0.26000
C2685       C  0.07163840  0.96442886  0.98384826     0.36100
C2686       C  0.05839724  0.96612206  0.00291469    -0.20000
C2687       C  0.06295424  0.95295319  0.02136339    -0.25200
C2688       C  0.08077276  0.93815352  0.02130427     0.27400
H2689       H  0.09956679  0.94787696  0.96909874     0.13200
N2690       N  0.06686696  0.97768080  0.96470349    -0.82500
H2691       H  0.05287076  0.95458616  0.03600364     0.18000
N2692       N  0.08553592  0.92491908  0.04044919    -0.81100
H2693       H  0.07774009  0.97386790  0.95186559     0.33700
H2694       H  0.06996496  0.99398768  0.96883523     0.38200
H2695       H  0.07431372  0.92833053  0.05310489     0.33600
H2696       H  0.08304280  0.90857308  0.03605627     0.30300
H2697       H  0.09645483  0.88322426  0.96628676     0.33600
H2698       H  0.08066316  0.89467611  0.98583160     0.30300
H2699       H  0.18266342  0.91965554  0.01852664     0.38200
H2700       H  0.16670405  0.93133239  0.03782690     0.33700
C2701       C  0.75109313  0.21922509  0.04385465    -0.20100
C2702       C  0.74562768  0.20590747  0.06214961     0.36100
C2703       C  0.74014703  0.21569024  0.08241774    -0.26000
C2704       C  0.73989598  0.23853466  0.08482579     0.02600
C2705       C  0.74447831  0.25188224  0.06629285     0.27400
C2706       C  0.74994220  0.24208573  0.04596661    -0.25200
N2707       N  0.74593399  0.18247761  0.06011092    -0.82600
H2708       H  0.73664332  0.20543099  0.09662021     0.13200
C2709       C  0.73620236  0.24800434  0.10721424     0.02600
N2710       N  0.74388178  0.27530306  0.06830184    -0.81100
H2711       H  0.75406004  0.25231120  0.03190698     0.18000
C2712       C  0.75301585  0.26061182  0.11703254    -0.26000
C2713       C  0.75128131  0.26784118  0.13902377     0.36100
C2714       C  0.73240960  0.26217268  0.15158157    -0.20000
C2715       C  0.71512039  0.25047520  0.14144132    -0.25200
C2716       C  0.71683339  0.24331668  0.11939460     0.27400
H2717       H  0.76784176  0.26431122  0.10767749     0.13200
N2718       N  0.76864006  0.28085576  0.14869475    -0.82500
H2719       H  0.70056266  0.24626925  0.15099300     0.18000
N2720       N  0.69912597  0.23104957  0.10938626    -0.81100
H2721       H  0.78133947  0.28357770  0.13730178     0.33700
H2722       H  0.76188805  0.29618972  0.15234016     0.38200
H2723       H  0.68612059  0.22885955  0.12054729     0.33600
H2724       H  0.69278867  0.24041839  0.09629416     0.30300
H2725       H  0.74777472  0.28275537  0.05323146     0.33600
H2726       H  0.72755027  0.27977991  0.07194316     0.30300
H2727       H  0.73364373  0.17817781  0.04866310     0.38200
H2728       H  0.74164735  0.17504052  0.07507963     0.33700
C2729       C  0.74831570  0.21093652  0.96081519    -0.20100
C2730       C  0.74463586  0.19480497  0.94448838     0.36100
C2731       C  0.73933208  0.20126265  0.92274707    -0.26000
C2732       C  0.73767351  0.22347269  0.91694356     0.02600
C2733       C  0.74022809  0.23952075  0.93348512     0.27400
C2734       C  0.74525275  0.23306295  0.95528519    -0.25200
N2735       N  0.74673634  0.17196767  0.94996601    -0.82600
H2736       H  0.73703157  0.18895268  0.91010112     0.13200
C2737       C  0.73487043  0.22979427  0.89328778     0.02600
N2738       N  0.73872494  0.26236180  0.92787807    -0.81100
H2739       H  0.74815583  0.24545252  0.96772180     0.18000
C2740       C  0.71702053  0.24318473  0.88679619    -0.26000
C2741       C  0.71501822  0.25110456  0.86495690     0.36100
C2742       C  0.73094565  0.24492614  0.84897457    -0.20000
C2743       C  0.74839533  0.23086062  0.85553111    -0.25200
C2744       C  0.75068307  0.22351159  0.87744054     0.27400
H2745       H  0.70490295  0.24796412  0.89903776     0.13200
N2746       N  0.69721964  0.26581311  0.85928073    -0.82500
H2747       H  0.76071387  0.22582963  0.84360455     0.18000
N2748       N  0.76934818  0.21011831  0.88377677    -0.81100
H2749       H  0.68660409  0.26799100  0.87270826     0.33700
H2750       H  0.70428475  0.28111090  0.85608432     0.38200
H2751       H  0.77941673  0.20685996  0.87015685     0.33600
H2752       H  0.77902713  0.21911481  0.89488304     0.30300
H2753       H  0.74093929  0.27204183  0.94192288     0.33600
H2754       H  0.75186097  0.26599708  0.91725957     0.30300
H2755       H  0.73438615  0.16820416  0.96143271     0.38200
H2756       H  0.74374028  0.16225932  0.93607922     0.33700
C2757       C  0.90367252  0.10456871  0.00743061    -0.20100
C2758       C  0.90522939  0.12562173  0.99770710     0.36100
C2759       C  0.88643398  0.13942267  0.99737108    -0.26000
C2760       C  0.86614481  0.13258262  0.00638012     0.02600
C2761       C  0.86466399  0.11172598  0.01626907     0.27400
C2762       C  0.88332179  0.09794463  0.01656379    -0.25200
N2763       N  0.92561467  0.13273592  0.98775038    -0.82600
H2764       H  0.88745532  0.15543063  0.98967662     0.13200
C2765       C  0.84636827  0.14716904  0.00527676     0.02600
N2766       N  0.84419561  0.10469549  0.02613305    -0.81100
H2767       H  0.88197723  0.08193261  0.02419694     0.18000
C2768       C  0.82716253  0.13985192  0.99436312    -0.26000
C2769       C  0.80760309  0.15241583  0.99415231     0.36100
C2770       C  0.80736269  0.17300615  0.00469309    -0.20000
C2771       C  0.82665381  0.18042325  0.01544184    -0.25200
C2772       C  0.84614576  0.16767255  0.01589922     0.27400
H2773       H  0.82737409  0.12406913  0.98626242     0.13200
N2774       N  0.78786620  0.14418181  0.98361978    -0.82500
H2775       H  0.82651515  0.19626297  0.02342280     0.18000
N2776       N  0.86561375  0.17530672  0.02732767    -0.81100
H2777       H  0.79083286  0.12884432  0.97662365     0.33700
H2778       H  0.77592959  0.14185743  0.99588313     0.38200
H2779       H  0.86274859  0.19071821  0.03419981     0.33600
H2780       H  0.86865992  0.16460204  0.04052825     0.30300
H2781       H  0.84579267  0.08888332  0.03262269     0.33600
H2782       H  0.84098719  0.11502050  0.03947972     0.30300
H2783       H  0.92860576  0.12267575  0.97414532     0.38200
H2784       H  0.92400263  0.14867200  0.98158216     0.33700
C2785       C  0.75300452  0.80444655  0.15656367    -0.20100
C2786       C  0.76921104  0.82006595  0.15016488     0.36100
C2787       C  0.77402157  0.82289799  0.12769300    -0.26000
C2788       C  0.76366185  0.81017797  0.11148831     0.02600
C2789       C  0.74799957  0.79429363  0.11762878     0.27400
C2790       C  0.74268480  0.79170137  0.14005264    -0.25200
N2791       N  0.78101572  0.83283698  0.16631215    -0.82600
H2792       H  0.78633968  0.83483701  0.12273160     0.13200
C2793       C  0.76985841  0.81373216  0.08818343     0.02600
N2794       N  0.73756690  0.78092109  0.10107479    -0.81100
H2795       H  0.73040637  0.77957699  0.14456934     0.18000
C2796       C  0.78159933  0.79740779  0.07694505    -0.26000
C2797       C  0.79026497  0.80140505  0.05579600     0.36100
C2798       C  0.78663647  0.82197483  0.04569823    -0.20000
C2799       C  0.77423392  0.83798013  0.05671682    -0.25200
C2800       C  0.76582925  0.83407306  0.07789757     0.27400
H2801       H  0.78480387  0.78189213  0.08510614     0.13200
N2802       N  0.80339806  0.78504164  0.04492921    -0.82500
H2803       H  0.77132978  0.85368573  0.04881491     0.18000
N2804       N  0.75355302  0.85076952  0.08923311    -0.81100
H2805       H  0.80450607  0.77088196  0.05463762     0.33700
H2806       H  0.81953502  0.79115211  0.04349715     0.38200
H2807       H  0.75225317  0.86488192  0.07947753     0.33600
H2808       H  0.73740362  0.84496034  0.09150003     0.30300
H2809       H  0.72656715  0.76984073  0.10834801     0.33600
H2810       H  0.72804208  0.79120830  0.09092659     0.30300
H2811       H  0.79149676  0.82217003  0.17503199     0.38200
H2812       H  0.79137548  0.84426402  0.15865591     0.33700
C2813       C  0.79406469  0.80843543  0.96468729    -0.20100
C2814       C  0.77205662  0.80811556  0.95662543     0.36100
C2815       C  0.76756021  0.79829442  0.93617659    -0.26000
C2816       C  0.78452316  0.78857874  0.92378833     0.02600
C2817       C  0.80634037  0.78791885  0.93241707     0.27400
C2818       C  0.81094123  0.79808425  0.95272713    -0.25200
N2819       N  0.75463886  0.81898395  0.96850219    -0.82600
H2820       H  0.75089691  0.79910722  0.92937496     0.13200
C2821       C  0.77954445  0.78193121  0.90072669     0.02600
N2822       N  0.82374772  0.77736003  0.92027181    -0.81100
H2823       H  0.82779298  0.79830765  0.95909998     0.18000
C2824       C  0.79122693  0.79206732  0.88353219    -0.26000
C2825       C  0.78475334  0.78936534  0.86142439     0.36100
C2826       C  0.76598488  0.77640380  0.85640308    -0.20000
C2827       C  0.75506090  0.76522804  0.87348898    -0.25200
C2828       C  0.76169330  0.76784634  0.89564914     0.27400
H2829       H  0.80485911  0.80296278  0.88744412     0.13200
N2830       N  0.79684994  0.80015136  0.84408512    -0.82500
H2831       H  0.74071481  0.75523067  0.86964785     0.18000
N2832       N  0.75004776  0.75677060  0.91307563    -0.81100
H2833       H  0.81008547  0.80917075  0.85058254     0.33700
H2834       H  0.80381205  0.78802490  0.83413220     0.38200
H2835       H  0.73719234  0.74722030  0.90660510     0.33600
H2836       H  0.76124310  0.74598793  0.92067935     0.30300
H2837       H  0.83883443  0.77843854  0.92883055     0.33600
H2838       H  0.81983440  0.76072586  0.91931863     0.30300
H2839       H  0.75173872  0.81005033  0.98294915     0.38200
H2840       H  0.73977947  0.81856223  0.95949726     0.33700
C2841       C  0.91035778  0.95956548  0.00429040    -0.20100
C2842       C  0.91417464  0.93917284  0.01479685     0.36100
C2843       C  0.89823012  0.92251848  0.01284090    -0.26000
C2844       C  0.87843020  0.92594926  0.00101590     0.02600
C2845       C  0.87429634  0.94644014  0.99106260     0.27400
C2846       C  0.89028621  0.96307481  0.99284185    -0.25200
N2847       N  0.93398487  0.93557203  0.02771195    -0.82600
H2848       H  0.90110115  0.90682218  0.02077070     0.13200
C2849       C  0.86215890  0.90786435  0.99938639     0.02600
N2850       N  0.85401499  0.95014031  0.97896825    -0.81100
H2851       H  0.88727820  0.97870110  0.98482651     0.18000
C2852       C  0.84140562  0.91000375  0.00952026    -0.26000
C2853       C  0.82614617  0.89261957  0.00950214     0.36100
C2854       C  0.83204165  0.87254393  0.99953218    -0.20000
C2855       C  0.85248517  0.87080482  0.98863657    -0.25200
C2856       C  0.86753675  0.88833009  0.98833300     0.27400
H2857       H  0.83726153  0.92519459  0.01771805     0.13200
N2858       N  0.80473172  0.89525951  0.01954265    -0.82500
H2859       H  0.85698328  0.85550940  0.98083910     0.18000
N2860       N  0.88836598  0.88635974  0.97702786    -0.81100
H2861       H  0.80307212  0.91095639  0.02615432     0.33700
H2862       H  0.79275761  0.89389139  0.00705022     0.38200
H2863       H  0.88981568  0.87092610  0.96977449     0.33600
H2864       H  0.88830692  0.89776257  0.96409423     0.30300
H2865       H  0.85349082  0.96611253  0.97271721     0.33600
H2866       H  0.85403581  0.93969683  0.96532527     0.30300
H2867       H  0.93351396  0.94625538  0.04116072     0.38200
H2868       H  0.93420594  0.91972144  0.03429179     0.33700
loop_ 
_geom_bond_atom_site_label_1 
_geom_bond_atom_site_label_2 
_geom_bond_distance 
_geom_bond_site_symmetry_2 
_ccdc_geom_bond_type 
C1            C2   1.401       .  A
C1            C6   1.402       .  A
C1         C2798   1.477       .  S
C2            C3   1.401   1_554  A
C2            H7   1.084       .  S
C3            C4   1.405       .  A
C3         C2813   1.476       .  S
C4            C5   1.405   1_556  A
C4            H8   1.084       .  S
C5            C6   1.402       .  A
C5         C2854   1.486   1_554  S
C6            H9   1.084       .  S
C10          C11   1.407       .  A
C10          C15   1.409       .  A
C10        C2701   1.489       .  S
C11          C12   1.404       .  A
C11          H16   1.084       .  S
C12          C13   1.401   1_554  A
C12        C2770   1.487       .  S
C13          C14   1.403       .  A
C13          H17   1.084       .  S
C14          C15   1.410   1_556  A
C14        C2729   1.489       .  S
C15          H18   1.084       .  S
C19          C20   1.400       .  A
C19          C24   1.401       .  A
C19        C2630   1.471       .  S
C20          C21   1.400       .  A
C20          H25   1.084       .  S
C21          C22   1.402   1_554  A
C21        C2673   1.481       .  S
C22          C23   1.404       .  A
C22          H26   1.084       .  S
C23          C24   1.402   1_556  A
C23        C2645   1.478       .  S
C24          H27   1.084       .  S
C28          C29   1.400       .  A
C28          C33   1.400       .  A
C28        C2561   1.474       .  S
C29          C30   1.405       .  A
C29          H34   1.084       .  S
C30          C31   1.408       .  A
C30        C2589   1.490       .  S
C31          C32   1.410       .  A
C31          H35   1.084   1_545  S
C32          C33   1.403       .  A
C32        C2546   1.484   1_545  S
C33          H36   1.084       .  S
C37          C38   1.405       .  A
C37          C42   1.404       .  A
C37        C2449   1.482       .  S
C38          C39   1.407   1_655  A
C38          H43   1.084       .  S
C39          C40   1.407       .  A
C39        C2477   1.487       .  S
C40          C41   1.401   1_455  A
C40          H44   1.084       .  S
C41          C42   1.401       .  A
C41        C2505   1.480       .  S
C42          H45   1.084       .  S
C46          C47   1.399       .  A
C46          C51   1.406       .  A
C46        C2365   1.481       .  S
C47          C48   1.400       .  A
C47          H52   1.084       .  S
C48          C49   1.403   1_655  A
C48        C2421   1.483       .  S
C49          C50   1.407   1_455  A
C49          H53   1.084       .  S
C50          C51   1.407       .  A
C50        C2393   1.487   1_655  S
C51          H54   1.084       .  S
C55          C56   1.396       .  A
C55          C60   1.397       .  A
C55        C2309   1.460       .  S
C56          C57   1.395       .  A
C56          H61   1.085       .  S
C57          C58   1.397       .  A
C57        C2337   1.465       .  S
C58          C59   1.399       .  A
C58          H62   1.084   1_545  S
C59          C60   1.400       .  A
C59        C2281   1.466   1_545  S
C60          H63   1.084       .  S
C64          C65   1.407       .  A
C64          C69   1.401       .  A
C64        C2225   1.482       .  S
C65          C66   1.407   1_655  A
C65          H70   1.084       .  S
C66          C67   1.406       .  A
C66        C2197   1.482       .  S
C67          C68   1.403   1_455  A
C67          H71   1.084       .  S
C68          C69   1.399       .  A
C68        C2253   1.484       .  S
C69          H72   1.084       .  S
C73          C74   1.401       .  A
C73          C78   1.405       .  A
C73        C2141   1.477       .  S
C74          C75   1.397       .  A
C74          H79   1.084       .  S
C75          C76   1.398       .  A
C75        C2182   1.476       .  S
C76          C77   1.404       .  A
C76          H80   1.084   1_545  S
C77          C78   1.407       .  A
C77        C2113   1.483   1_545  S
C78          H81   1.083       .  S
C82          C83   1.405       .  A
C82          C87   1.407       .  A
C82        C2057   1.484       .  S
C83          C84   1.401       .  A
C83          H88   1.084       .  S
C84          C85   1.400   1_655  A
C84        C2029   1.481       .  S
C85          C86   1.402       .  A
C85          H89   1.084       .  S
C86          C87   1.406   1_455  A
C86        C2085   1.477       .  S
C87          H90   1.084       .  S
Zr91         O92   2.438       .  S
Zr91         O93   2.413       .  S
Zr91         O94   2.417       .  S
Zr91         O97   2.413       .  S
Zr91         O99   2.374       .  S
Zr91        O100   2.378       .  S
Zr91        O101   2.397       .  S
Zr91        O102   2.394       .  S
O92         H148   0.991       .  S
O92         H156   0.990       .  S
O93         C113   1.279       .  A
O94         C115   1.282       .  A
O95        Zr105   2.450       .  S
O95         C114   1.288       .  A
O96        Zr104   2.434       .  S
O96         C115   1.285       .  A
O97         C114   1.283       .  A
O98        Zr106   2.435       .  S
O98         C113   1.285       .  A
O99        Zr104   2.392       .  S
O99        Zr106   2.372       .  S
O100       Zr105   2.391       .  S
O100       Zr106   2.373       .  S
O100        H135   0.965       .  S
O101       Zr104   2.399       .  S
O101       Zr121   2.395       .  S
O101        H138   0.967       .  S
O102       Zr105   2.394       .  S
O102       Zr121   2.393       .  S
Zr103       O128   2.446       .  S
Zr103       O122   2.433       .  S
Zr103       O130   2.409       .  S
Zr103       O118   2.418       .  S
Zr103       O109   2.399       .  S
Zr103       O110   2.401       .  S
Zr103       O111   2.371       .  S
Zr103       O112   2.379       .  S
Zr104       O123   2.436       .  S
Zr104       O116   2.434       .  S
Zr104       O117   2.436       .  S
Zr104       O110   2.396       .  S
Zr104       O111   2.386       .  S
Zr105       O107   2.435       .  S
Zr105       O129   2.437       .  S
Zr105       O131   2.448       .  S
Zr105       O109   2.393       .  S
Zr105       O112   2.389       .  S
Zr106       O132   2.435       .  S
Zr106       O133   2.436       .  S
Zr106       O108   2.436       .  S
Zr106       O109   2.398       .  S
Zr106       O110   2.399       .  S
O107        H144   0.990       .  S
O108        H139   0.990       .  S
O108        H153   0.990       .  S
O110        H136   0.966       .  S
O111       Zr121   2.374       .  S
O112       Zr121   2.379       .  S
O112        H137   0.966       .  S
C113       C1958   1.493       .  S
C114       C1889   1.484       .  S
C115       C1917   1.477       .  S
O116        H152   0.990       .  S
O117        C119   1.284       .  A
O118        C119   1.283       .  A
C119       C1986   1.490       .  S
O120       Zr121   2.439       .  S
O120        H149   0.990       .  S
Zr121       O124   2.437       .  S
Zr121       O125   2.438       .  S
Zr121       O126   2.422       .  S
O122        C127   1.285       .  A
O123        H140   0.990       .  S
O123        H155   0.990       .  S
O124        H141   0.990       .  S
O125        H145   0.990       .  S
O125        H154   0.990       .  S
O126        C127   1.283       .  A
C127       C2001   1.481       .  S
O128        H147   0.990       .  S
O128        H151   0.990       .  S
O129        H143   0.990       .  S
O129        H150   0.990       .  S
O130        C134   1.281       .  A
O131        C134   1.287       .  A
O132        H142   0.990       .  S
O133        H146   0.990       .  S
C134       C2098   1.488       .  S
C157        C158   1.401       .  A
C157        C162   1.403       .  A
C157       C2014   1.475       .  S
C158        C159   1.401       .  A
C158        H163   1.084       .  S
C159        C160   1.404       .  A
C159       C1833   1.484       .  S
C160        C161   1.405       .  A
C160        H164   1.084   1_545  S
C161        C162   1.404       .  A
C161       C1874   1.478   1_545  S
C162        H165   1.084       .  S
Zr166       O167   2.441       .  S
Zr166       O168   2.424       .  S
Zr166       O169   2.429       .  S
Zr166       O172   2.427       .  S
Zr166       O174   2.377       .  S
Zr166       O175   2.382       .  S
Zr166       O176   2.400       .  S
Zr166       O177   2.393       .  S
O167        H223   0.990       .  S
O167        H231   0.990       .  S
O168        C188   1.283       .  A
O169        C190   1.284       .  A
O170       Zr180   2.443       .  S
O170        C189   1.286       .  A
O171       Zr179   2.435       .  S
O171        C190   1.284       .  A
O172        C189   1.284       .  A
O173       Zr181   2.422       .  S
O173        C188   1.282       .  A
O174       Zr179   2.393       .  S
O174       Zr181   2.376       .  S
O175       Zr180   2.394       .  S
O175       Zr181   2.386       .  S
O175        H210   0.966       .  S
O176       Zr179   2.403       .  S
O176       Zr196   2.395       .  S
O176        H213   0.966       .  S
O177       Zr180   2.394       .  S
O177       Zr196   2.391       .  S
Zr178       O203   2.445       .  S
Zr178       O197   2.417       .  S
Zr178       O205   2.420       .  S
Zr178       O193   2.418       .  S
Zr178       O184   2.395       .  S
Zr178       O185   2.398       .  S
Zr178       O186   2.374       .  S
Zr178       O187   2.376       .  S
Zr179       O198   2.436       .  S
Zr179       O191   2.434       .  S
Zr179       O192   2.446       .  S
Zr179       O185   2.397       .  S
Zr179       O186   2.388       .  S
Zr180       O182   2.435       .  S
Zr180       O204   2.436       .  S
Zr180       O206   2.446       .  S
Zr180       O184   2.390       .  S
Zr180       O187   2.391       .  S
Zr181       O207   2.436       .  S
Zr181       O208   2.436       .  S
Zr181       O183   2.437       .  S
Zr181       O184   2.393       .  S
Zr181       O185   2.396       .  S
O182        H219   0.990       .  S
O183        H214   0.990       .  S
O183        H228   0.990       .  S
O185        H211   0.966       .  S
O186       Zr196   2.370       .  S
O187       Zr196   2.381       .  S
O187        H212   0.966       .  S
C188       C1749   1.491       .  S
C189       C1790   1.482       .  S
C190       C1805   1.495       .  S
O191        H227   0.990       .  S
O192        C194   1.287       .  A
O193        C194   1.282       .  A
C194       C1861   1.485       .  S
O195       Zr196   2.439       .  S
O195        H224   0.990       .  S
Zr196       O199   2.436       .  S
Zr196       O200   2.440       .  S
Zr196       O201   2.422       .  S
O197        C202   1.282       .  A
O198        H215   0.990       .  S
O198        H230   0.990       .  S
O199        H216   0.990       .  S
O200        H220   0.990       .  S
O200        H229   0.990       .  S
O201        C202   1.281       .  A
C202       C2617   1.476       .  S
O203        H222   0.990       .  S
O203        H226   0.990       .  S
O204        H218   0.990       .  S
O204        H225   0.990       .  S
O205        C209   1.284       .  A
O206        C209   1.286       .  A
O207        H217   0.990       .  S
O208        H221   0.990       .  S
C209       C2210   1.493       .  S
Zr232       O233   2.440       .  S
Zr232       O234   2.439       .  S
Zr232       O235   2.431       .  S
Zr232       O238   2.429       .  S
Zr232       O240   2.381       .  S
Zr232       O241   2.380       .  S
Zr232       O242   2.408       .  S
Zr232       O243   2.400       .  S
O233        H289   0.990       .  S
O233        H297   0.990       .  S
O234        C254   1.286       .  A
O235        C256   1.284       .  A
O236       Zr246   2.450       .  S
O236        C255   1.288       .  A
O237       Zr245   2.442       .  S
O237        C256   1.286       .  A
O238        C255   1.284       .  A
O239       Zr247   2.414       .  S
O239        C254   1.280       .  A
O240       Zr245   2.399       .  S
O240       Zr247   2.378       .  S
O241       Zr246   2.387       .  S
O241       Zr247   2.381       .  S
O241        H276   0.966       .  S
O242       Zr245   2.402       .  S
O242       Zr262   2.402       .  S
O242        H279   0.966       .  S
O243       Zr246   2.390       .  S
O243       Zr262   2.396       .  S
Zr244       O269   2.444       .  S
Zr244       O263   2.423       .  S
Zr244       O271   2.414       .  S
Zr244       O259   2.423       .  S
Zr244       O250   2.396       .  S
Zr244       O251   2.396       .  S
Zr244       O252   2.374       .  S
Zr244       O253   2.383       .  S
Zr245       O264   2.436       .  S
Zr245       O257   2.434       .  S
Zr245       O258   2.455       .  S
Zr245       O251   2.396       .  S
Zr245       O252   2.386       .  S
Zr246       O248   2.435       .  S
Zr246       O270   2.436       .  S
Zr246       O272   2.441       .  S
Zr246       O250   2.394       .  S
Zr246       O253   2.393       .  S
Zr247       O273   2.436       .  S
Zr247       O274   2.436       .  S
Zr247       O249   2.436       .  S
Zr247       O250   2.392       .  S
Zr247       O251   2.393       .  S
O248        H285   0.990       .  S
O249        H280   0.990       .  S
O249        H294   0.990       .  S
O251        H277   0.966       .  S
O252       Zr262   2.372       .  S
O253       Zr262   2.376       .  S
O253        H278   0.966       .  S
C254       C2154   1.489       .  S
C255       C2714   1.486       .  S
C256       C2070   1.496       .  S
O257        H293   0.990       .  S
O258        C260   1.290       .  A
O259        C260   1.284       .  A
C260       C1665   1.496       .  S
O261       Zr262   2.439       .  S
O261        H290   0.990       .  S
Zr262       O265   2.437       .  S
Zr262       O266   2.439       .  S
Zr262       O267   2.438       .  S
O263        C268   1.283       .  A
O264        H281   0.990       .  S
O264        H296   0.990       .  S
O265        H282   0.990       .  S
O266        H286   0.990       .  S
O266        H295   0.990       .  S
O267        C268   1.286       .  A
C268       C1693   1.491       .  S
O269        H288   0.990       .  S
O269        H292   0.990       .  S
O270        H284   0.990       .  S
O270        H291   0.990       .  S
O271        C275   1.283       .  A
O272        C275   1.286       .  A
O273        H283   0.990       .  S
O274        H287   0.990       .  S
C275       C1721   1.490       .  S
Zr298       O299   2.440       .  S
Zr298       O300   2.416       .  S
Zr298       O301   2.428       .  S
Zr298       O304   2.406       .  S
Zr298       O306   2.374       .  S
Zr298       O307   2.381       .  S
Zr298       O308   2.398       .  S
Zr298       O309   2.396       .  S
O299        H355   0.991       .  S
O299        H363   0.990       .  S
O300        C320   1.280       .  A
O301        C322   1.283       .  A
O302       Zr312   2.451       .  S
O302        C321   1.289       .  A
O303       Zr311   2.443       .  S
O303        C322   1.286       .  A
O304        C321   1.282       .  A
O305       Zr313   2.443       .  S
O305        C320   1.286       .  A
O306       Zr311   2.394       .  S
O306       Zr313   2.378       .  S
O307       Zr312   2.394       .  S
O307       Zr313   2.373       .  S
O307        H342   0.966       .  S
O308       Zr311   2.404       .  S
O308       Zr328   2.392       .  S
O308        H345   0.965       .  S
O309       Zr312   2.395       .  S
O309       Zr328   2.389       .  S
Zr310       O335   2.445       .  S
Zr310       O329   2.421       .  S
Zr310       O337   2.404       .  S
Zr310       O325   2.412       .  S
Zr310       O316   2.397       .  S
Zr310       O317   2.395       .  S
Zr310       O318   2.372       .  S
Zr310       O319   2.377       .  S
Zr311       O330   2.437       .  S
Zr311       O323   2.435       .  S
Zr311       O324   2.454       .  S
Zr311       O317   2.391       .  S
Zr311       O318   2.389       .  S
Zr312       O314   2.435       .  S
Zr312       O336   2.435       .  S
Zr312       O338   2.458       .  S
Zr312       O316   2.396       .  S
Zr312       O319   2.389       .  S
Zr313       O339   2.436       .  S
Zr313       O340   2.435       .  S
Zr313       O315   2.437       .  S
Zr313       O316   2.402       .  S
Zr313       O317   2.402       .  S
O314        H351   0.990       .  S
O315        H346   0.990       .  S
O315        H360   0.990       .  S
O317        H343   0.967       .  S
O318       Zr328   2.377       .  S
O319       Zr328   2.377       .  S
O319        H344   0.966       .  S
C320       C1594   1.498       .  S
C321       C1622   1.490       .  S
C322       C1637   1.479       .  S
O323        H359   0.990       .  S
O324        C326   1.288       .  A
O325        C326   1.282       .  A
C326       C2238   1.499       .  S
O327       Zr328   2.437       .  S
O327        H356   0.990       .  S
Zr328       O331   2.435       .  S
Zr328       O332   2.439       .  S
Zr328       O333   2.423       .  S
O329        C334   1.282       .  A
O330        H347   0.990       .  S
O330        H362   0.990       .  S
O331        H348   0.990       .  S
O332        H352   0.990       .  S
O332        H361   0.990       .  S
O333        C334   1.283       .  A
C334       C2785   1.492       .  S
O335        H354   0.990       .  S
O335        H358   0.990       .  S
O336        H350   0.990       .  S
O336        H357   0.990       .  S
O337        C341   1.280       .  A
O338        C341   1.289       .  A
O339        H349   0.990       .  S
O340        H353   0.990       .  S
C341       C2126   1.485       .  S
C364        C365   1.402       .  A
C364        C369   1.400       .  A
C364       C1973   1.475       .  S
C365        C366   1.404       .  A
C365        H370   1.083       .  S
C366        C367   1.409   1_554  A
C366       C1525   1.495       .  S
C367        C368   1.410       .  A
C367        H371   1.084       .  S
C368        C369   1.404   1_556  A
C368       C1566   1.487       .  S
C369        H372   1.084       .  S
Zr373       O374   2.440       .  S
Zr373       O375   2.420       .  S
Zr373       O376   2.417       .  S
Zr373       O379   2.410       .  S
Zr373       O381   2.373       .  S
Zr373       O382   2.377       .  S
Zr373       O383   2.399       .  S
Zr373       O384   2.397       .  S
O374        H430   0.990       .  S
O374        H438   0.990       .  S
O375        C395   1.283       .  A
O376        C397   1.281       .  A
O377       Zr387   2.456       .  S
O377        C396   1.289       .  A
O378       Zr386   2.451       .  S
O378        C397   1.288       .  A
O379        C396   1.281       .  A
O380       Zr388   2.412       .  S
O380        C395   1.279       .  A
O381       Zr386   2.389       .  S
O381       Zr388   2.378       .  S
O382       Zr387   2.388       .  S
O382       Zr388   2.377       .  S
O382        H417   0.966       .  S
O383       Zr386   2.398       .  S
O383       Zr403   2.393       .  S
O383        H420   0.966       .  S
O384       Zr387   2.394       .  S
O384       Zr403   2.398       .  S
Zr385       O410   2.445       .  S
Zr385       O404   2.411       .  S
Zr385       O412   2.412       .  S
Zr385       O400   2.419       .  S
Zr385       O391   2.393       .  S
Zr385       O392   2.394       .  S
Zr385       O393   2.375       .  S
Zr385       O394   2.378       .  S
Zr386       O405   2.435       .  S
Zr386       O398   2.435       .  S
Zr386       O399   2.441       .  S
Zr386       O392   2.400       .  S
Zr386       O393   2.395       .  S
Zr387       O389   2.434       .  S
Zr387       O411   2.436       .  S
Zr387       O413   2.450       .  S
Zr387       O391   2.396       .  S
Zr387       O394   2.390       .  S
Zr388       O414   2.436       .  S
Zr388       O415   2.437       .  S
Zr388       O390   2.438       .  S
Zr388       O391   2.391       .  S
Zr388       O392   2.389       .  S
O389        H426   0.990       .  S
O390        H421   0.990       .  S
O390        H435   0.990       .  S
O392        H418   0.965       .  S
O393       Zr403   2.374       .  S
O394       Zr403   2.376       .  S
O394        H419   0.966       .  S
C395       C2322   1.486       .  S
C396       C1553   1.485       .  S
C397       C2490   1.494       .  S
O398        H434   0.990       .  S
O399        C401   1.286       .  A
O400        C401   1.283       .  A
C401       C1441   1.478       .  S
O402       Zr403   2.439       .  S
O402        H431   0.990       .  S
Zr403       O406   2.437       .  S
Zr403       O407   2.439       .  S
Zr403       O408   2.430       .  S
O404        C409   1.279       .  A
O405        H422   0.990       .  S
O405        H437   0.990       .  S
O406        H423   0.990       .  S
O407        H427   0.990       .  S
O407        H436   0.990       .  S
O408        C409   1.284       .  A
C409       C1469   1.491       .  S
O410        H429   0.990       .  S
O410        H433   0.990       .  S
O411        H425   0.990       .  S
O411        H432   0.990       .  S
O412        C416   1.281       .  A
O413        C416   1.288       .  A
O414        H424   0.990       .  S
O415        H428   0.990       .  S
C416       C1497   1.484       .  S
Zr439       O440   2.441       .  S
Zr439       O441   2.419       .  S
Zr439       O442   2.414       .  S
Zr439       O445   2.404       .  S
Zr439       O447   2.373       .  S
Zr439       O448   2.379       .  S
Zr439       O449   2.396       .  S
Zr439       O450   2.392       .  S
O440        H496   0.991       .  S
O440        H504   0.990       .  S
O441        C461   1.281       .  A
O442        C463   1.280       .  A
O443       Zr453   2.455       .  S
O443        C462   1.288       .  A
O444       Zr452   2.440       .  S
O444        C463   1.285       .  A
O445        C462   1.280       .  A
O446       Zr454   2.407       .  S
O446        C461   1.280       .  A
O447       Zr452   2.390       .  S
O447       Zr454   2.379       .  S
O448       Zr453   2.387       .  S
O448       Zr454   2.382       .  S
O448        H483   0.966       .  S
O449       Zr452   2.399       .  S
O449       Zr469   2.401       .  S
O449        H486   0.967       .  S
O450       Zr453   2.394       .  S
O450       Zr469   2.398       .  S
Zr451       O476   2.444       .  S
Zr451       O470   2.417       .  S
Zr451       O478   2.415       .  S
Zr451       O466   2.414       .  S
Zr451       O457   2.395       .  S
Zr451       O458   2.396       .  S
Zr451       O459   2.375       .  S
Zr451       O460   2.376       .  S
Zr452       O471   2.437       .  S
Zr452       O464   2.435       .  S
Zr452       O465   2.433       .  S
Zr452       O458   2.401       .  S
Zr452       O459   2.395       .  S
Zr453       O455   2.434       .  S
Zr453       O477   2.436       .  S
Zr453       O479   2.444       .  S
Zr453       O457   2.399       .  S
Zr453       O460   2.390       .  S
Zr454       O480   2.436       .  S
Zr454       O481   2.435       .  S
Zr454       O456   2.437       .  S
Zr454       O457   2.389       .  S
Zr454       O458   2.391       .  S
O455        H492   0.990       .  S
O456        H487   0.990       .  S
O456        H501   0.990       .  S
O458        H484   0.966       .  S
O459       Zr469   2.371       .  S
O460       Zr469   2.375       .  S
O460        H485   0.965       .  S
C461       C2294   1.472       .  S
C462       C2406   1.479       .  S
C463       C2658   1.486       .  S
O464        H500   0.990       .  S
O465        C467   1.284       .  A
O466        C467   1.282       .  A
C467       C1385   1.474       .  S
O468       Zr469   2.439       .  S
O468        H497   0.990       .  S
Zr469       O472   2.438       .  S
Zr469       O473   2.438       .  S
Zr469       O474   2.438       .  S
O470        C475   1.281       .  A
O471        H488   0.990       .  S
O471        H503   0.990       .  S
O472        H489   0.990       .  S
O473        H493   0.990       .  S
O473        H502   0.990       .  S
O474        C475   1.286       .  A
C475       C1413   1.495       .  S
O476        H495   0.990       .  S
O476        H499   0.990       .  S
O477        H491   0.990       .  S
O477        H498   0.990       .  S
O478        C482   1.283       .  A
O479        C482   1.286       .  A
O480        H490   0.990       .  S
O481        H494   0.990       .  S
C482       C1370   1.478       .  S
Zr505       O506   2.440       .  S
Zr505       O507   2.430       .  S
Zr505       O508   2.421       .  S
Zr505       O511   2.415       .  S
Zr505       O513   2.376       .  S
Zr505       O514   2.380       .  S
Zr505       O515   2.402       .  S
Zr505       O516   2.397       .  S
O506        H562   0.990       .  S
O506        H570   0.990       .  S
O507        C527   1.284       .  A
O508        C529   1.282       .  A
O509       Zr519   2.446       .  S
O509        C528   1.286       .  A
O510       Zr518   2.447       .  S
O510        C529   1.287       .  A
O511        C528   1.282       .  A
O512       Zr520   2.420       .  S
O512        C527   1.281       .  A
O513       Zr518   2.394       .  S
O513       Zr520   2.379       .  S
O514       Zr519   2.396       .  S
O514       Zr520   2.379       .  S
O514        H549   0.966       .  S
O515       Zr518   2.402       .  S
O515       Zr535   2.401       .  S
O515        H552   0.966       .  S
O516       Zr519   2.397       .  S
O516       Zr535   2.395       .  S
Zr517       O542   2.442       .  S
Zr517       O536   2.422       .  S
Zr517       O544   2.412       .  S
Zr517       O532   2.416       .  S
Zr517       O523   2.396       .  S
Zr517       O524   2.399       .  S
Zr517       O525   2.376       .  S
Zr517       O526   2.379       .  S
Zr518       O537   2.436       .  S
Zr518       O530   2.434       .  S
Zr518       O531   2.447       .  S
Zr518       O524   2.398       .  S
Zr518       O525   2.389       .  S
Zr519       O521   2.435       .  S
Zr519       O543   2.437       .  S
Zr519       O545   2.453       .  S
Zr519       O523   2.393       .  S
Zr519       O526   2.393       .  S
Zr520       O546   2.435       .  S
Zr520       O547   2.436       .  S
Zr520       O522   2.437       .  S
Zr520       O523   2.397       .  S
Zr520       O524   2.394       .  S
O521        H558   0.990       .  S
O522        H553   0.990       .  S
O522        H567   0.990       .  S
O524        H550   0.966       .  S
O525       Zr535   2.372       .  S
O526       Zr535   2.374       .  S
O526        H551   0.966       .  S
C527       C2574   1.482       .  S
C528       C2462   1.477       .  S
C529       C2742   1.497       .  S
O530        H566   0.990       .  S
O531        C533   1.288       .  A
O532        C533   1.282       .  A
C533       C1314   1.479       .  S
O534       Zr535   2.439       .  S
O534        H563   0.991       .  S
Zr535       O538   2.437       .  S
Zr535       O539   2.439       .  S
Zr535       O540   2.430       .  S
O536        C541   1.283       .  A
O537        H554   0.990       .  S
O537        H569   0.990       .  S
O538        H555   0.990       .  S
O539        H559   0.990       .  S
O539        H568   0.990       .  S
O540        C541   1.283       .  A
C541       C1329   1.493       .  S
O542        H561   0.990       .  S
O542        H565   0.990       .  S
O543        H557   0.990       .  S
O543        H564   0.990       .  S
O544        C548   1.283       .  A
O545        C548   1.289       .  A
O546        H556   0.990       .  S
O547        H560   0.990       .  S
C548       C1273   1.489       .  S
Zr571       O572   2.440       .  S
Zr571       O573   2.434       .  S
Zr571       O574   2.417       .  S
Zr571       O577   2.418       .  S
Zr571       O579   2.376       .  S
Zr571       O580   2.379       .  S
Zr571       O581   2.401       .  S
Zr571       O582   2.400       .  S
O572        H628   0.991       .  S
O572        H636   0.990       .  S
O573        C593   1.285       .  A
O574        C595   1.281       .  A
O575       Zr585   2.441       .  S
O575        C594   1.286       .  A
O576       Zr584   2.439       .  S
O576        C595   1.285       .  A
O577        C594   1.283       .  A
O578       Zr586   2.415       .  S
O578        C593   1.280       .  A
O579       Zr584   2.393       .  S
O579       Zr586   2.374       .  S
O580       Zr585   2.390       .  S
O580       Zr586   2.378       .  S
O580        H615   0.966       .  S
O581       Zr584   2.401       .  S
O581       Zr601   2.394       .  S
O581        H618   0.966       .  S
O582       Zr585   2.395       .  S
O582       Zr601   2.398       .  S
Zr583       O608   2.447       .  S
Zr583       O602   2.422       .  S
Zr583       O610   2.419       .  S
Zr583       O598   2.420       .  S
Zr583       O589   2.398       .  S
Zr583       O590   2.398       .  S
Zr583       O591   2.375       .  S
Zr583       O592   2.379       .  S
Zr584       O603   2.436       .  S
Zr584       O596   2.435       .  S
Zr584       O597   2.439       .  S
Zr584       O590   2.399       .  S
Zr584       O591   2.389       .  S
Zr585       O587   2.434       .  S
Zr585       O609   2.436       .  S
Zr585       O611   2.441       .  S
Zr585       O589   2.393       .  S
Zr585       O592   2.393       .  S
Zr586       O612   2.435       .  S
Zr586       O613   2.436       .  S
Zr586       O588   2.437       .  S
Zr586       O589   2.396       .  S
Zr586       O590   2.393       .  S
O587        H624   0.989       .  S
O588        H619   0.990       .  S
O588        H633   0.990       .  S
O590        H616   0.965       .  S
O591       Zr601   2.370       .  S
O592       Zr601   2.381       .  S
O592        H617   0.967       .  S
C593       C2378   1.495       .  S
C594       C2533   1.479       .  S
C595       C2826   1.479       .  S
O596        H632   0.990       .  S
O597        C599   1.285       .  A
O598        C599   1.283       .  A
C599       C1217   1.479       .  S
O600       Zr601   2.440       .  S
O600        H629   0.990       .  S
Zr601       O604   2.437       .  S
Zr601       O605   2.440       .  S
Zr601       O606   2.427       .  S
O602        C607   1.283       .  A
O603        H620   0.990       .  S
O603        H635   0.990       .  S
O604        H621   0.990       .  S
O605        H625   0.990       .  S
O605        H634   0.990       .  S
O606        C607   1.282       .  A
C607       C1245   1.472       .  S
O608        H627   0.990       .  S
O608        H631   0.990       .  S
O609        H623   0.990       .  S
O609        H630   0.990       .  S
O610        C614   1.283       .  A
O611        C614   1.285       .  A
O612        H622   0.990       .  S
O613        H626   0.990       .  S
C614       C1189   1.492       .  S
C637        C638   1.405       .  A
C637        C642   1.401       .  A
C637       C1258   1.482       .  S
C638        C639   1.407       .  A
C638        H643   1.083       .  S
C639        C640   1.404       .  A
C639       C1161   1.488       .  S
C640        C641   1.402       .  A
C640        H644   1.084       .  S
C641        C642   1.398       .  A
C641       C1398   1.469       .  S
C642        H645   1.084       .  S
C646        C647   1.402       .  A
C646        C651   1.402       .  A
C646       C1482   1.478       .  S
C647        C648   1.399       .  A
C647        H652   1.084       .  S
C648        C649   1.402       .  A
C648       C1133   1.478       .  S
C649        C650   1.403       .  A
C649        H653   1.084       .  S
C650        C651   1.403       .  A
C650       C1426   1.474       .  S
C651        H654   1.084       .  S
C655        C656   1.400       .  A
C655        C660   1.401       .  A
C655       C1301   1.472       .  S
C656        C657   1.403       .  A
C656        H661   1.084       .  S
C657        C658   1.406       .  A
C657       C1510   1.481       .  S
C658        C659   1.406       .  A
C658        H662   1.083       .  S
C659        C660   1.405       .  A
C659       C1118   1.491       .  S
C660        H663   1.084       .  S
C664        C665   1.400       .  A
C664        C669   1.403       .  A
C664       C1342   1.479       .  S
C665        C666   1.402       .  A
C665        H670   1.083       .  S
C666        C667   1.404       .  A
C666       C1077   1.488       .  S
C667        C668   1.403       .  A
C667        H671   1.083       .  S
C668        C669   1.401       .  A
C668       C1230   1.471       .  S
C669        H672   1.084       .  S
C673        C674   1.403       .  A
C673        C678   1.403       .  A
C673       C1734   1.480       .  S
C674        C675   1.403       .  A
C674        H679   1.084       .  S
C675        C676   1.402       .  A
C675       C1930   1.474       .  S
C676        C677   1.403       .  A
C676        H680   1.084       .  S
C677        C678   1.402       .  A
C677       C1049   1.485       .  S
C678        H681   1.083       .  S
C682        C683   1.403       .  A
C682        C687   1.399       .  A
C682       C1706   1.473       .  S
C683        C684   1.404       .  A
C683        H688   1.084       .  S
C684        C685   1.404       .  A
C684       C1650   1.476       .  S
C685        C686   1.404       .  A
C685        H689   1.084       .  S
C686        C687   1.400       .  A
C686       C1021   1.480       .  S
C687        H690   1.084       .  S
C691        C692   1.406       .  A
C691        C696   1.405       .  A
C691       C1609   1.482       .  S
C692        C693   1.407       .  A
C692        H697   1.084       .  S
C693        C694   1.403       .  A
C693       C1818   1.484       .  S
C694        C695   1.401       .  A
C694        H698   1.084       .  S
C695        C696   1.403       .  A
C695        C993   1.485       .  S
C696        H699   1.084       .  S
C700        C701   1.403       .  A
C700        C705   1.398       .  A
C700       C1945   1.473       .  S
C701        C702   1.406       .  A
C701        H706   1.084       .  S
C702        C703   1.408       .  A
C702       C1777   1.485       .  S
C703        C704   1.403       .  A
C703        H707   1.083       .  S
C704        C705   1.400       .  A
C704        C965   1.485       .  S
C705        H708   1.084       .  S
C709        C710   1.408       .  A
C709        C714   1.403       .  A
C709       C1581   1.481       .  S
C710        C711   1.407       .  A
C710        H715   1.084       .  S
C711        C712   1.404       .  A
C711       C1202   1.483       .  S
C712        C713   1.399       .  A
C712        H716   1.084       .  S
C713        C714   1.399       .  A
C713        C937   1.477       .  S
C714        H717   1.084       .  S
C718        C719   1.407       .  A
C718        C723   1.406       .  A
C718       C1678   1.485       .  S
C719        C720   1.404       .  A
C719        H724   1.084       .  S
C720        C721   1.401       .  A
C720        C909   1.485       .  S
C721        C722   1.403       .  A
C721        H725   1.084       .  S
C722        C723   1.404       .  A
C722       C1286   1.482       .  S
C723        H726   1.083       .  S
C727        C728   1.400       .  A
C727        C732   1.399       .  A
C727       C1762   1.473       .  S
C728        C729   1.403       .  A
C728        H733   1.084       .  S
C729        C730   1.408       .  A
C729       C1357   1.481       .  S
C730        C731   1.403       .  A
C730        H734   1.084       .  S
C731        C732   1.402       .  A
C731        C881   1.483       .  S
C732        H735   1.084       .  S
C736        C737   1.408       .  A
C736        C741   1.403       .  A
C736       C1902   1.489       .  S
C737        C738   1.407       .  A
C737        H742   1.083       .  S
C738        C739   1.407       .  A
C738        C853   1.495       .  S
C739        C740   1.404       .  A
C739        H743   1.083       .  S
C740        C741   1.401       .  A
C740       C1454   1.475       .  S
C741        H744   1.084       .  S
O745       Zr781   2.441   1_565  S
O745        C756   1.293       .  A
O746       Zr780   2.427       .  S
O746        C757   1.289   1_545  A
O747       Zr753   2.432   1_556  S
O747        C758   1.290       .  A
O748       Zr753   2.412       .  S
O748        C759   1.288       .  A
O749       Zr783   2.459   1_565  S
O749        C759   1.296       .  A
O750       Zr782   2.426       .  S
O750        C758   1.290   1_545  A
O751       Zr753   2.445   1_455  S
O751        C757   1.293       .  A
O752       Zr753   2.436       .  S
O752        C756   1.292       .  A
Zr753       O754   2.338   1_665  S
Zr753       O755   2.336   1_564  S
Zr753       O763   2.339   1_565  S
Zr753       O761   2.326   1_664  S
O754       Zr780   2.334       .  S
O754       Zr783   2.335   1_455  S
O755       Zr781   2.333   1_556  S
O755       Zr782   2.327       .  S
C756       C2841   1.482       .  S
C757       C2686   1.467       .  S
C758       C2434   1.469       .  S
C759       C2266   1.483       .  S
H760        O761   0.966       .  S
O761       Zr780   2.333   1_556  S
O761       Zr782   2.330   1_455  S
H762        O763   0.965       .  S
O763       Zr781   2.336       .  S
O763       Zr783   2.337       .  S
O764       Zr780   2.430       .  S
O764        C787   1.292       .  A
O765       Zr781   2.432       .  S
O765        C788   1.292       .  A
O766       Zr782   2.428   1_455  S
O766        C789   1.290       .  A
O767       Zr783   2.442   1_455  S
O767        C790   1.292       .  A
O768       Zr783   2.434       .  S
O768        C791   1.291       .  A
O769       Zr782   2.446       .  S
O769        C792   1.294       .  A
O770       Zr784   2.468   1_556  S
O770        C793   1.297       .  A
O771       Zr784   2.451       .  S
O771        C794   1.295       .  A
O772       Zr782   2.410       .  S
O772        C793   1.288       .  A
O773       Zr783   2.432       .  S
O773        C794   1.293       .  A
O774       Zr780   2.413   1_556  S
O774        C789   1.287       .  A
O775       Zr781   2.436   1_556  S
O775        C792   1.291       .  A
O776       Zr781   2.423       .  S
O776        C791   1.290       .  A
O777       Zr780   2.430       .  S
O777        C790   1.290       .  A
O778       Zr784   2.465   1_455  S
O778        C787   1.296       .  A
O779       Zr784   2.456       .  S
O779        C788   1.296       .  A
Zr780       O786   2.335   1_554  S
Zr780       O798   2.334       .  S
Zr781       O785   2.342       .  S
Zr781       O796   2.339   1_554  S
Zr782       O786   2.341   1_655  S
Zr782       O796   2.335       .  S
Zr783       O785   2.348       .  S
Zr783       O798   2.354   1_655  S
Zr784       O785   2.352       .  S
Zr784       O786   2.337   1_654  S
Zr784       O798   2.359   1_655  S
Zr784       O796   2.354   1_554  S
C787       C1538   1.502       .  S
C788       C2757   1.489       .  S
C789       C2350   1.456       .  S
C790       C1846   1.471       .  S
C791       C2169   1.481       .  S
C792       C2602   1.491       .  S
C793       C2518   1.480       .  S
C794       C2042   1.484       .  S
H795        O796   0.965       .  S
H797        O798   0.966       .  S
O799       Zr835   2.443       .  S
O799        C810   1.294       .  A
O800       Zr834   2.447       .  S
O800        C811   1.294       .  A
O801       Zr807   2.416       .  S
O801        C812   1.289       .  A
O802       Zr807   2.422       .  S
O802        C813   1.290       .  A
O803       Zr837   2.444       .  S
O803        C813   1.293       .  A
O804       Zr836   2.442       .  S
O804        C812   1.293       .  A
O805       Zr807   2.433       .  S
O805        C811   1.292       .  A
O806       Zr807   2.437       .  S
O806        C810   1.291       .  A
Zr807       O808   2.329       .  S
Zr807       O809   2.331       .  S
Zr807       O817   2.332       .  S
Zr807       O815   2.340       .  S
O808       Zr834   2.346       .  S
O808       Zr837   2.336       .  S
O809       Zr835   2.331       .  S
O809       Zr836   2.333       .  S
C810       C1174   1.497       .  S
C811       C1105   1.483       .  S
C812       C1146   1.476       .  S
C813       C1090   1.477       .  S
H814        O815   0.966       .  S
O815       Zr834   2.339       .  S
O815       Zr836   2.342       .  S
H816        O817   0.965       .  S
O817       Zr835   2.337       .  S
O817       Zr837   2.339       .  S
O818       Zr834   2.451       .  S
O818        C841   1.295       .  A
O819       Zr835   2.433       .  S
O819        C842   1.291       .  A
O820       Zr836   2.436       .  S
O820        C843   1.293       .  A
O821       Zr837   2.432       .  S
O821        C844   1.292       .  A
O822       Zr837   2.445       .  S
O822        C845   1.294       .  A
O823       Zr836   2.434       .  S
O823        C846   1.292       .  A
O824       Zr838   2.435       .  S
O824        C847   1.291       .  A
O825       Zr838   2.445       .  S
O825        C848   1.293       .  A
O826       Zr836   2.439       .  S
O826        C847   1.292       .  A
O827       Zr837   2.431       .  S
O827        C848   1.291       .  A
O828       Zr834   2.460       .  S
O828        C843   1.296       .  A
O829       Zr835   2.440       .  S
O829        C846   1.293       .  A
O830       Zr835   2.430       .  S
O830        C845   1.291       .  A
O831       Zr834   2.438       .  S
O831        C844   1.292       .  A
O832       Zr838   2.425       .  S
O832        C841   1.289       .  A
O833       Zr838   2.439       .  S
O833        C842   1.292       .  A
Zr834       O840   2.340       .  S
Zr834       O852   2.351       .  S
Zr835       O839   2.342       .  S
Zr835       O850   2.340       .  S
Zr836       O840   2.336       .  S
Zr836       O850   2.346       .  S
Zr837       O839   2.338       .  S
Zr837       O852   2.350       .  S
Zr838       O839   2.336       .  S
Zr838       O840   2.345       .  S
Zr838       O852   2.344       .  S
Zr838       O850   2.343       .  S
C841       C1062   1.479       .  S
C842       C1006   1.476       .  S
C843        C866   1.493       .  S
C844        C922   1.470       .  S
C845        C950   1.482       .  S
C846        C894   1.482       .  S
C847        C978   1.476       .  S
C848       C1034   1.478       .  S
H849        O850   0.966       .  S
H851        O852   0.965       .  S
C853        C854   1.413       .  A
C853        C858   1.408       .  A
C854        C855   1.406       .  A
C854        N859   1.432       .  S
C855        C856   1.403       .  A
C855        H860   1.084       .  S
C856        C857   1.409       .  A
C856        C861   1.487       .  S
C857        C858   1.408       .  A
C857        N862   1.437       .  S
C858        H863   1.084       .  S
N859        H879   1.046       .  S
N859        H880   1.046       .  S
C861        C864   1.403       .  A
C861        C868   1.408       .  A
N862        H877   1.046       .  S
N862        H878   1.046       .  S
C864        C865   1.411       .  A
C864        H869   1.084       .  S
C865        C866   1.417       .  A
C865        N870   1.436       .  S
C866        C867   1.407       .  A
C867        C868   1.406       .  A
C867        H871   1.082       .  S
C868        N872   1.438       .  S
N870        H873   1.046       .  S
N870        H874   1.045       .  S
N872        H875   1.046       .  S
N872        H876   1.046       .  S
C881        C882   1.413       .  A
C881        C886   1.405       .  A
C882        C883   1.402       .  A
C882        N887   1.438       .  S
C883        C884   1.399       .  A
C883        H888   1.084       .  S
C884        C885   1.410       .  A
C884        C889   1.478       .  S
C885        C886   1.407       .  A
C885        N890   1.438       .  S
C886        H891   1.084       .  S
N887        H907   1.046       .  S
N887        H908   1.046       .  S
C889        C892   1.402       .  A
C889        C896   1.415       .  A
N890        H905   1.046       .  S
N890        H906   1.045       .  S
C892        C893   1.405       .  A
C892        H897   1.084       .  S
C893        C894   1.414       .  A
C893        N898   1.438       .  S
C894        C895   1.405       .  A
C895        C896   1.400       .  A
C895        H899   1.084       .  S
C896        N900   1.439       .  S
N898        H901   1.046       .  S
N898        H902   1.046       .  S
N900        H903   1.046       .  S
N900        H904   1.043       .  S
C909        C910   1.414       .  A
C909        C914   1.405       .  A
C910        C911   1.404       .  A
C910        N915   1.438       .  S
C911        C912   1.399       .  A
C911        H916   1.084       .  S
C912        C913   1.408       .  A
C912        C917   1.475       .  S
C913        C914   1.406       .  A
C913        N918   1.438       .  S
C914        H919   1.084       .  S
N915        H935   1.046       .  S
N915        H936   1.046       .  S
C917        C920   1.400       .  A
C917        C924   1.409       .  A
N918        H933   1.046       .  S
N918        H934   1.045       .  S
C920        C921   1.402       .  A
C920        H925   1.084       .  S
C921        C922   1.410       .  A
C921        N926   1.439       .  S
C922        C923   1.404       .  A
C923        C924   1.407       .  A
C923        H927   1.084       .  S
C924        N928   1.438       .  S
N926        H929   1.046       .  S
N926        H930   1.046       .  S
N928        H931   1.046       .  S
N928        H932   1.045       .  S
C937        C938   1.409       .  A
C937        C942   1.402       .  A
C938        C939   1.403       .  A
C938        N943   1.433       .  S
C939        C940   1.402       .  A
C939        H944   1.084       .  S
C940        C941   1.409       .  A
C940        C945   1.477       .  S
C941        C942   1.404       .  A
C941        N946   1.438       .  S
C942        H947   1.084       .  S
N943        H963   1.045       .  S
N943        H964   1.046       .  S
C945        C948   1.400       .  A
C945        C952   1.408       .  A
N946        H961   1.046       .  S
N946        H962   1.046       .  S
C948        C949   1.404       .  A
C948        H953   1.084       .  S
C949        C950   1.416       .  A
C949        N954   1.439       .  S
C950        C951   1.406       .  A
C951        C952   1.405       .  A
C951        H955   1.084       .  S
C952        N956   1.438       .  S
N954        H957   1.046       .  S
N954        H958   1.046       .  S
N956        H959   1.046       .  S
N956        H960   1.046       .  S
C965        C966   1.414       .  A
C965        C970   1.406       .  A
C966        C967   1.406       .  A
C966        N971   1.438       .  S
C967        C968   1.401       .  A
C967        H972   1.084       .  S
C968        C969   1.406       .  A
C968        C973   1.475       .  S
C969        C970   1.403       .  A
C969        N974   1.438       .  S
C970        H975   1.084       .  S
N971        H991   1.046       .  S
N971        H992   1.046       .  S
C973        C976   1.400       .  A
C973        C980   1.407       .  A
N974        H989   1.046       .  S
N974        H990   1.045       .  S
C976        C977   1.404       .  A
C976        H981   1.084       .  S
C977        C978   1.413       .  A
C977        N982   1.438       .  S
C978        C979   1.405       .  A
C979        C980   1.405       .  A
C979        H983   1.084       .  S
C980        N984   1.438       .  S
N982        H985   1.046       .  S
N982        H986   1.045       .  S
N984        H987   1.046       .  S
N984        H988   1.045       .  S
C993        C994   1.414       .  A
C993        C998   1.405       .  A
C994        C995   1.407       .  A
C994        N999   1.438       .  S
C995        C996   1.401       .  A
C995       H1000   1.084       .  S
C996        C997   1.407       .  A
C996       C1001   1.477       .  S
C997        C998   1.403       .  A
C997       N1002   1.438       .  S
C998       H1003   1.084       .  S
N999       H1019   1.045       .  S
N999       H1020   1.046       .  S
C1001      C1004   1.401       .  A
C1001      C1008   1.409       .  A
N1002      H1017   1.046       .  S
N1002      H1018   1.046       .  S
C1004      C1005   1.403       .  A
C1004      H1009   1.084       .  S
C1005      C1006   1.413       .  A
C1005      N1010   1.439       .  S
C1006      C1007   1.404       .  A
C1007      C1008   1.406       .  A
C1007      H1011   1.084       .  S
C1008      N1012   1.437       .  S
N1010      H1013   1.046       .  S
N1010      H1014   1.046       .  S
N1012      H1015   1.046       .  S
N1012      H1016   1.046       .  S
C1021      C1022   1.408       .  A
C1021      C1026   1.404       .  A
C1022      C1023   1.403       .  A
C1022      N1027   1.432       .  S
C1023      C1024   1.401       .  A
C1023      H1028   1.084       .  S
C1024      C1025   1.409       .  A
C1024      C1029   1.475       .  S
C1025      C1026   1.404       .  A
C1025      N1030   1.439       .  S
C1026      H1031   1.084       .  S
N1027      H1047   1.045       .  S
N1027      H1048   1.046       .  S
C1029      C1032   1.401       .  A
C1029      C1036   1.408       .  A
N1030      H1045   1.046       .  S
N1030      H1046   1.044       .  S
C1032      C1033   1.406       .  A
C1032      H1037   1.084       .  S
C1033      C1034   1.413       .  A
C1033      N1038   1.438       .  S
C1034      C1035   1.405       .  A
C1035      C1036   1.403       .  A
C1035      H1039   1.084       .  S
C1036      N1040   1.439       .  S
N1038      H1041   1.046       .  S
N1038      H1042   1.046       .  S
N1040      H1043   1.046       .  S
N1040      H1044   1.044       .  S
C1049      C1050   1.415       .  A
C1049      C1054   1.406       .  A
C1050      C1051   1.404       .  A
C1050      N1055   1.438       .  S
C1051      C1052   1.399       .  A
C1051      H1056   1.084       .  S
C1052      C1053   1.407       .  A
C1052      C1057   1.475       .  S
C1053      C1054   1.405       .  A
C1053      N1058   1.438       .  S
C1054      H1059   1.084       .  S
N1055      H1075   1.046       .  S
N1055      H1076   1.046       .  S
C1057      C1060   1.399       .  A
C1057      C1064   1.407       .  A
N1058      H1073   1.046       .  S
N1058      H1074   1.045       .  S
C1060      C1061   1.405       .  A
C1060      H1065   1.084       .  S
C1061      C1062   1.417       .  A
C1061      N1066   1.439       .  S
C1062      C1063   1.404       .  A
C1063      C1064   1.405       .  A
C1063      H1067   1.084       .  S
C1064      N1068   1.437       .  S
N1066      H1069   1.046       .  S
N1066      H1070   1.045       .  S
N1068      H1071   1.046       .  S
N1068      H1072   1.045       .  S
C1077      C1078   1.416       .  A
C1077      C1082   1.408       .  A
C1078      C1079   1.405       .  A
C1078      N1083   1.438       .  S
C1079      C1080   1.399       .  A
C1079      H1084   1.084       .  S
C1080      C1081   1.405       .  A
C1080      C1085   1.472       .  S
C1081      C1082   1.401       .  A
C1081      N1086   1.438       .  S
C1082      H1087   1.083       .  S
N1083      H1103   1.045       .  S
N1083      H1104   1.046       .  S
C1085      C1088   1.402       .  A
C1085      C1092   1.405       .  A
N1086      H1101   1.046       .  S
N1086      H1102   1.045       .  S
C1088      C1089   1.407       .  A
C1088      H1093   1.084       .  S
C1089      C1090   1.413       .  A
C1089      N1094   1.438       .  S
C1090      C1091   1.406       .  A
C1091      C1092   1.400       .  A
C1091      H1095   1.084       .  S
C1092      N1096   1.438       .  S
N1094      H1097   1.046       .  S
N1094      H1098   1.046       .  S
N1096      H1099   1.046       .  S
N1096      H1100   1.045       .  S
C1105      C1106   1.415       .  A
C1105      C1110   1.405       .  A
C1106      C1107   1.405       .  A
C1106      N1111   1.439       .  S
C1107      C1108   1.400       .  A
C1107      H1112   1.084       .  S
C1108      C1109   1.409       .  A
C1108      C1113   1.479       .  S
C1109      C1110   1.407       .  A
C1109      N1114   1.438       .  S
C1110      H1115   1.081       .  S
N1111      H1131   1.046       .  S
N1111      H1132   1.046       .  S
C1113      C1116   1.401       .  A
C1113      C1120   1.408       .  A
N1114      H1129   1.046       .  S
N1114      H1130   1.044       .  S
C1116      C1117   1.406       .  A
C1116      H1121   1.084       .  S
C1117      C1118   1.415       .  A
C1117      N1122   1.438       .  S
C1118      C1119   1.408       .  A
C1119      C1120   1.406       .  A
C1119      H1123   1.083       .  S
C1120      N1124   1.438       .  S
N1122      H1125   1.046       .  S
N1122      H1126   1.046       .  S
N1124      H1127   1.046       .  S
N1124      H1128   1.044       .  S
C1133      C1134   1.412       .  A
C1133      C1138   1.402       .  A
C1134      C1135   1.404       .  A
C1134      N1139   1.438       .  S
C1135      C1136   1.402       .  A
C1135      H1140   1.084       .  S
C1136      C1137   1.410       .  A
C1136      C1141   1.479       .  S
C1137      C1138   1.404       .  A
C1137      N1142   1.438       .  S
C1138      H1143   1.084       .  S
N1139      H1159   1.046       .  S
N1139      H1160   1.046       .  S
C1141      C1144   1.404       .  A
C1141      C1148   1.408       .  A
N1142      H1157   1.045       .  S
N1142      H1158   1.046       .  S
C1144      C1145   1.405       .  A
C1144      H1149   1.084       .  S
C1145      C1146   1.412       .  A
C1145      N1150   1.438       .  S
C1146      C1147   1.405       .  A
C1147      C1148   1.401       .  A
C1147      H1151   1.084       .  S
C1148      N1152   1.438       .  S
N1150      H1153   1.046       .  S
N1150      H1154   1.046       .  S
N1152      H1155   1.046       .  S
N1152      H1156   1.046       .  S
C1161      C1162   1.413       .  A
C1161      C1166   1.405       .  A
C1162      C1163   1.406       .  A
C1162      N1167   1.438       .  S
C1163      C1164   1.404       .  A
C1163      H1168   1.083       .  S
C1164      C1165   1.412       .  A
C1164      C1169   1.490       .  S
C1165      C1166   1.406       .  A
C1165      N1170   1.438       .  S
C1166      H1171   1.083       .  S
N1167      H1187   1.046       .  S
N1167      H1188   1.046       .  S
C1169      C1172   1.402       .  A
C1169      C1176   1.410       .  A
N1170      H1185   1.046       .  S
N1170      H1186   1.046       .  S
C1172      C1173   1.406       .  A
C1172      H1177   1.084       .  S
C1173      C1174   1.421       .  A
C1173      N1178   1.438       .  S
C1174      C1175   1.410       .  A
C1175      C1176   1.406       .  A
C1175      H1179   1.082       .  S
C1176      N1180   1.438       .  S
N1178      H1181   1.046       .  S
N1178      H1182   1.045       .  S
N1180      H1183   1.046       .  S
N1180      H1184   1.045       .  S
C1189      C1190   1.419       .  A
C1189      C1194   1.408       .  A
C1190      C1191   1.411       .  A
C1190      N1195   1.437       .  S
C1191      C1192   1.403       .  A
C1191      H1196   1.084       .  S
C1192      C1193   1.408       .  A
C1192      C1197   1.485       .  S
C1193      C1194   1.401       .  A
C1193      N1198   1.438       .  S
C1194      H1199   1.083       .  S
N1195      H1215   1.046       .  S
N1195      H1216   1.046       .  S
C1197      C1200   1.403       .  A
C1197      C1204   1.411       .  A
N1198      H1213   1.046       .  S
N1198      H1214   1.046       .  S
C1200      C1201   1.399       .  A
C1200      H1205   1.084       .  S
C1201      C1202   1.408       .  A
C1201      N1206   1.433       .  S
C1202      C1203   1.405       .  A
C1203      C1204   1.411       .  A
C1203      H1207   1.084       .  S
C1204      N1208   1.437       .  S
N1206      H1209   1.045       .  S
N1206      H1210   1.046       .  S
N1208      H1211   1.046       .  S
N1208      H1212   1.046       .  S
C1217      C1218   1.414       .  A
C1217      C1222   1.405       .  A
C1218      C1219   1.407       .  A
C1218      N1223   1.437       .  S
C1219      C1220   1.401       .  A
C1219      H1224   1.084       .  S
C1220      C1221   1.407       .  A
C1220      C1225   1.476       .  S
C1221      C1222   1.402       .  A
C1221      N1226   1.438       .  S
C1222      H1227   1.084       .  S
N1223      H1243   1.045       .  S
N1223      H1244   1.046       .  S
C1225      C1228   1.402       .  A
C1225      C1232   1.409       .  A
N1226      H1241   1.046       .  S
N1226      H1242   1.046       .  S
C1228      C1229   1.407       .  A
C1228      H1233   1.084       .  S
C1229      C1230   1.409       .  A
C1229      N1234   1.437       .  S
C1230      C1231   1.400       .  A
C1231      C1232   1.402       .  A
C1231      H1235   1.084       .  S
C1232      N1236   1.438       .  S
N1234      H1237   1.046       .  S
N1234      H1238   1.045       .  S
N1236      H1239   1.046       .  S
N1236      H1240   1.046       .  S
C1245      C1246   1.412       .  A
C1245      C1250   1.402       .  A
C1246      C1247   1.407       .  A
C1246      N1251   1.438       .  S
C1247      C1248   1.402       .  A
C1247      H1252   1.084       .  S
C1248      C1249   1.408       .  A
C1248      C1253   1.476       .  S
C1249      C1250   1.402       .  A
C1249      N1254   1.438       .  S
C1250      H1255   1.084       .  S
N1251      H1271   1.046       .  S
N1251      H1272   1.046       .  S
C1253      C1256   1.400       .  A
C1253      C1260   1.408       .  A
N1254      H1269   1.046       .  S
N1254      H1270   1.045       .  S
C1256      C1257   1.404       .  A
C1256      H1261   1.084       .  S
C1257      C1258   1.414       .  A
C1257      N1262   1.438       .  S
C1258      C1259   1.404       .  A
C1259      C1260   1.404       .  A
C1259      H1263   1.084       .  S
C1260      N1264   1.438       .  S
N1262      H1265   1.046       .  S
N1262      H1266   1.046       .  S
N1264      H1267   1.046       .  S
N1264      H1268   1.046       .  S
C1273      C1274   1.416       .  A
C1273      C1278   1.408       .  A
C1274      C1275   1.410       .  A
C1274      N1279   1.437       .  S
C1275      C1276   1.402       .  A
C1275      H1280   1.084       .  S
C1276      C1277   1.406       .  A
C1276      C1281   1.480       .  S
C1277      C1278   1.402       .  A
C1277      N1282   1.438       .  S
C1278      H1283   1.084       .  S
N1279      H1299   1.046       .  S
N1279      H1300   1.046       .  S
C1281      C1284   1.401       .  A
C1281      C1288   1.409       .  A
N1282      H1297   1.046       .  S
N1282      H1298   1.046       .  S
C1284      C1285   1.402       .  A
C1284      H1289   1.084       .  S
C1285      C1286   1.411       .  A
C1285      N1290   1.438       .  S
C1286      C1287   1.405       .  A
C1287      C1288   1.409       .  A
C1287      H1291   1.084       .  S
C1288      N1292   1.437       .  S
N1290      H1293   1.046       .  S
N1290      H1294   1.046       .  S
N1292      H1295   1.046       .  S
N1292      H1296   1.046       .  S
C1301      C1302   1.408       .  A
C1301      C1306   1.400       .  A
C1302      C1303   1.405       .  A
C1302      N1307   1.438       .  S
C1303      C1304   1.404       .  A
C1303      H1308   1.084       .  S
C1304      C1305   1.411       .  A
C1304      C1309   1.484       .  S
C1305      C1306   1.405       .  A
C1305      N1310   1.437       .  S
C1306      H1311   1.084       .  S
N1307      H1327   1.046       .  S
N1307      H1328   1.046       .  S
C1309      C1312   1.403       .  A
C1309      C1316   1.410       .  A
N1310      H1325   1.046       .  S
N1310      H1326   1.046       .  S
C1312      C1313   1.405       .  A
C1312      H1317   1.084       .  S
C1313      C1314   1.413       .  A
C1313      N1318   1.439       .  S
C1314      C1315   1.404       .  A
C1315      C1316   1.406       .  A
C1315      H1319   1.084       .  S
C1316      N1320   1.437       .  S
N1318      H1321   1.046       .  S
N1318      H1322   1.046       .  S
N1320      H1323   1.046       .  S
N1320      H1324   1.045       .  S
C1329      C1330   1.418       .  A
C1329      C1334   1.410       .  A
C1330      C1331   1.402       .  A
C1330      N1335   1.432       .  S
C1331      C1332   1.399       .  A
C1331      H1336   1.084       .  S
C1332      C1333   1.409       .  A
C1332      C1337   1.481       .  S
C1333      C1334   1.405       .  A
C1333      N1338   1.438       .  S
C1334      H1339   1.083       .  S
N1335      H1355   1.046       .  S
N1335      H1356   1.046       .  S
C1337      C1340   1.402       .  A
C1337      C1344   1.411       .  A
N1338      H1353   1.046       .  S
N1338      H1354   1.046       .  S
C1340      C1341   1.402       .  A
C1340      H1345   1.084       .  S
C1341      C1342   1.413       .  A
C1341      N1346   1.438       .  S
C1342      C1343   1.402       .  A
C1343      C1344   1.404       .  A
C1343      H1347   1.084       .  S
C1344      N1348   1.438       .  S
N1346      H1349   1.046       .  S
N1346      H1350   1.045       .  S
N1348      H1351   1.046       .  S
N1348      H1352   1.046       .  S
C1357      C1358   1.414       .  A
C1357      C1362   1.402       .  A
C1358      C1359   1.407       .  A
C1358      N1363   1.438       .  S
C1359      C1360   1.401       .  A
C1359      H1364   1.084       .  S
C1360      C1361   1.408       .  A
C1360      C1365   1.476       .  S
C1361      C1362   1.401       .  A
C1361      N1366   1.438       .  S
C1362      H1367   1.084       .  S
N1363      H1383   1.046       .  S
N1363      H1384   1.046       .  S
C1365      C1368   1.399       .  A
C1365      C1372   1.409       .  A
N1366      H1381   1.046       .  S
N1366      H1382   1.046       .  S
C1368      C1369   1.400       .  A
C1368      H1373   1.084       .  S
C1369      C1370   1.412       .  A
C1369      N1374   1.438       .  S
C1370      C1371   1.406       .  A
C1371      C1372   1.410       .  A
C1371      H1375   1.084       .  S
C1372      N1376   1.437       .  S
N1374      H1377   1.046       .  S
N1374      H1378   1.046       .  S
N1376      H1379   1.046       .  S
N1376      H1380   1.046       .  S
C1385      C1386   1.411       .  A
C1385      C1390   1.404       .  A
C1386      C1387   1.399       .  A
C1386      N1391   1.438       .  S
C1387      C1388   1.401       .  A
C1387      H1392   1.084       .  S
C1388      C1389   1.411       .  A
C1388      C1393   1.480       .  S
C1389      C1390   1.406       .  A
C1389      N1394   1.437       .  S
C1390      H1395   1.084       .  S
N1391      H1411   1.046       .  S
N1391      H1412   1.046       .  S
C1393      C1396   1.404       .  A
C1393      C1400   1.411       .  A
N1394      H1409   1.046       .  S
N1394      H1410   1.046       .  S
C1396      C1397   1.403       .  A
C1396      H1401   1.084       .  S
C1397      C1398   1.407       .  A
C1397      N1402   1.438       .  S
C1398      C1399   1.400       .  A
C1399      C1400   1.403       .  A
C1399      H1403   1.084       .  S
C1400      N1404   1.438       .  S
N1402      H1405   1.046       .  S
N1402      H1406   1.045       .  S
N1404      H1407   1.046       .  S
N1404      H1408   1.045       .  S
C1413      C1414   1.422       .  A
C1413      C1418   1.411       .  A
C1414      C1415   1.404       .  A
C1414      N1419   1.438       .  S
C1415      C1416   1.398       .  A
C1415      H1420   1.084       .  S
C1416      C1417   1.406       .  A
C1416      C1421   1.479       .  S
C1417      C1418   1.405       .  A
C1417      N1422   1.438       .  S
C1418      H1423   1.083       .  S
N1419      H1439   1.044       .  S
N1419      H1440   1.046       .  S
C1421      C1424   1.401       .  A
C1421      C1428   1.410       .  A
N1422      H1437   1.046       .  S
N1422      H1438   1.046       .  S
C1424      C1425   1.404       .  A
C1424      H1429   1.084       .  S
C1425      C1426   1.410       .  A
C1425      N1430   1.438       .  S
C1426      C1427   1.402       .  A
C1427      C1428   1.405       .  A
C1427      H1431   1.084       .  S
C1428      N1432   1.437       .  S
N1430      H1433   1.046       .  S
N1430      H1434   1.045       .  S
N1432      H1435   1.046       .  S
N1432      H1436   1.046       .  S
C1441      C1442   1.411       .  A
C1441      C1446   1.404       .  A
C1442      C1443   1.401       .  A
C1442      N1447   1.437       .  S
C1443      C1444   1.402       .  A
C1443      H1448   1.083       .  S
C1444      C1445   1.413       .  A
C1444      C1449   1.487       .  S
C1445      C1446   1.409       .  A
C1445      N1450   1.437       .  S
C1446      H1451   1.084       .  S
N1447      H1467   1.046       .  S
N1447      H1468   1.046       .  S
C1449      C1452   1.405       .  A
C1449      C1456   1.413       .  A
N1450      H1465   1.046       .  S
N1450      H1466   1.046       .  S
C1452      C1453   1.405       .  A
C1452      H1457   1.084       .  S
C1453      C1454   1.408       .  A
C1453      N1458   1.438       .  S
C1454      C1455   1.401       .  A
C1455      C1456   1.406       .  A
C1455      H1459   1.084       .  S
C1456      N1460   1.438       .  S
N1458      H1461   1.046       .  S
N1458      H1462   1.045       .  S
N1460      H1463   1.046       .  S
N1460      H1464   1.045       .  S
C1469      C1470   1.421       .  A
C1469      C1474   1.410       .  A
C1470      C1471   1.401       .  A
C1470      N1475   1.438       .  S
C1471      C1472   1.399       .  A
C1471      H1476   1.084       .  S
C1472      C1473   1.407       .  A
C1472      C1477   1.481       .  S
C1473      C1474   1.405       .  A
C1473      N1478   1.438       .  S
C1474      H1479   1.083       .  S
N1475      H1495   1.043       .  S
N1475      H1496   1.046       .  S
C1477      C1480   1.403       .  A
C1477      C1484   1.410       .  A
N1478      H1493   1.046       .  S
N1478      H1494   1.046       .  S
C1480      C1481   1.405       .  A
C1480      H1485   1.084       .  S
C1481      C1482   1.411       .  A
C1481      N1486   1.438       .  S
C1482      C1483   1.403       .  A
C1483      C1484   1.400       .  A
C1483      H1487   1.084       .  S
C1484      N1488   1.438       .  S
N1486      H1489   1.046       .  S
N1486      H1490   1.045       .  S
N1488      H1491   1.046       .  S
N1488      H1492   1.046       .  S
C1497      C1498   1.416       .  A
C1497      C1502   1.406       .  A
C1498      C1499   1.402       .  A
C1498      N1503   1.438       .  S
C1499      C1500   1.398       .  A
C1499      H1504   1.084       .  S
C1500      C1501   1.408       .  A
C1500      C1505   1.478       .  S
C1501      C1502   1.409       .  A
C1501      N1506   1.437       .  S
C1502      H1507   1.084       .  S
N1503      H1523   1.046       .  S
N1503      H1524   1.046       .  S
C1505      C1508   1.401       .  A
C1505      C1512   1.408       .  A
N1506      H1521   1.046       .  S
N1506      H1522   1.046       .  S
C1508      C1509   1.408       .  A
C1508      H1513   1.084       .  S
C1509      C1510   1.413       .  A
C1509      N1514   1.438       .  S
C1510      C1511   1.403       .  A
C1511      C1512   1.403       .  A
C1511      H1515   1.084       .  S
C1512      N1516   1.438       .  S
N1514      H1517   1.046       .  S
N1514      H1518   1.046       .  S
N1516      H1519   1.046       .  S
N1516      H1520   1.046       .  S
C1525      C1526   1.414       .  A
C1525      C1530   1.408   1_554  A
C1526      C1527   1.403       .  A
C1526      N1531   1.432       .  S
C1527      C1528   1.402       .  A
C1527      H1532   1.084       .  S
C1528      C1529   1.410   1_554  A
C1528      C1533   1.489       .  S
C1529      C1530   1.410       .  A
C1529      N1534   1.437       .  S
C1530      H1535   1.083       .  S
N1531      H1551   1.046       .  S
N1531      H1552   1.045       .  S
C1533      C1536   1.404       .  A
C1533      C1540   1.407   1_554  A
N1534      H1549   1.046       .  S
N1534      H1550   1.046       .  S
C1536      C1537   1.414       .  A
C1536      H1541   1.084       .  S
C1537      C1538   1.420       .  A
C1537      N1542   1.437       .  S
C1538      C1539   1.411   1_554  A
C1539      C1540   1.404       .  A
C1539      H1543   1.083       .  S
C1540      N1544   1.439       .  S
N1542      H1545   1.046       .  S
N1542      H1546   1.046       .  S
N1544      H1547   1.046       .  S
N1544      H1548   1.046       .  S
C1553      C1554   1.416       .  A
C1553      C1558   1.406       .  A
C1554      C1555   1.404       .  A
C1554      N1559   1.439       .  S
C1555      C1556   1.399       .  A
C1555      H1560   1.084       .  S
C1556      C1557   1.410       .  A
C1556      C1561   1.482       .  S
C1557      C1558   1.411       .  A
C1557      N1562   1.437       .  S
C1558      H1563   1.083       .  S
N1559      H1579   1.046       .  S
N1559      H1580   1.046       .  S
C1561      C1564   1.401       .  A
C1561      C1568   1.409       .  A
N1562      H1577   1.046       .  S
N1562      H1578   1.045       .  S
C1564      C1565   1.410       .  A
C1564      H1569   1.084       .  S
C1565      C1566   1.415       .  A
C1565      N1570   1.438       .  S
C1566      C1567   1.404       .  A
C1567      C1568   1.405       .  A
C1567      H1571   1.084       .  S
C1568      N1572   1.438       .  S
N1570      H1573   1.046       .  S
N1570      H1574   1.045       .  S
N1572      H1575   1.046       .  S
N1572      H1576   1.046       .  S
C1581      C1582   1.411       .  A
C1581      C1586   1.403       .  A
C1582      C1583   1.407       .  A
C1582      N1587   1.438       .  S
C1583      C1584   1.404       .  A
C1583      H1588   1.083       .  S
C1584      C1585   1.412       .  A
C1584      C1589   1.488       .  S
C1585      C1586   1.405       .  A
C1585      N1590   1.438       .  S
C1586      H1591   1.084       .  S
N1587      H1607   1.046       .  S
N1587      H1608   1.046       .  S
C1589      C1592   1.400       .  A
C1589      C1596   1.409       .  A
N1590      H1605   1.046       .  S
N1590      H1606   1.045       .  S
C1592      C1593   1.404       .  A
C1592      H1597   1.084       .  S
C1593      C1594   1.422       .  A
C1593      N1598   1.439       .  S
C1594      C1595   1.410       .  A
C1595      C1596   1.408       .  A
C1595      H1599   1.083       .  S
C1596      N1600   1.438       .  S
N1598      H1601   1.046       .  S
N1598      H1602   1.045       .  S
N1600      H1603   1.046       .  S
N1600      H1604   1.046       .  S
C1609      C1610   1.408       .  A
C1609      C1614   1.405       .  A
C1610      C1611   1.400       .  A
C1610      N1615   1.432       .  S
C1611      C1612   1.402       .  A
C1611      H1616   1.084       .  S
C1612      C1613   1.410       .  A
C1612      C1617   1.482       .  S
C1613      C1614   1.410       .  A
C1613      N1618   1.437       .  S
C1614      H1619   1.084       .  S
N1615      H1635   1.046       .  S
N1615      H1636   1.046       .  S
C1617      C1620   1.404       .  A
C1617      C1624   1.406       .  A
N1618      H1633   1.046       .  S
N1618      H1634   1.046       .  S
C1620      C1621   1.412       .  A
C1620      H1625   1.083       .  S
C1621      C1622   1.416       .  A
C1621      N1626   1.437       .  S
C1622      C1623   1.409       .  A
C1623      C1624   1.399       .  A
C1623      H1627   1.084       .  S
C1624      N1628   1.439       .  S
N1626      H1629   1.046       .  S
N1626      H1630   1.046       .  S
N1628      H1631   1.046       .  S
N1628      H1632   1.045       .  S
C1637      C1638   1.412       .  A
C1637      C1642   1.404       .  A
C1638      C1639   1.406       .  A
C1638      N1643   1.437       .  S
C1639      C1640   1.403       .  A
C1639      H1644   1.084       .  S
C1640      C1641   1.411       .  A
C1640      C1645   1.486       .  S
C1641      C1642   1.407       .  A
C1641      N1646   1.437       .  S
C1642      H1647   1.084       .  S
N1643      H1663   1.046       .  S
N1643      H1664   1.046       .  S
C1645      C1648   1.403       .  A
C1645      C1652   1.411       .  A
N1646      H1661   1.046       .  S
N1646      H1662   1.045       .  S
C1648      C1649   1.401       .  A
C1648      H1653   1.084       .  S
C1649      C1650   1.415       .  A
C1649      N1654   1.439       .  S
C1650      C1651   1.403       .  A
C1651      C1652   1.408       .  A
C1651      H1655   1.084       .  S
C1652      N1656   1.437       .  S
N1654      H1657   1.046       .  S
N1654      H1658   1.043       .  S
N1656      H1659   1.046       .  S
N1656      H1660   1.046       .  S
C1665      C1666   1.419       .  A
C1665      C1670   1.408       .  A
C1666      C1667   1.405       .  A
C1666      N1671   1.439       .  S
C1667      C1668   1.402       .  A
C1667      H1672   1.084       .  S
C1668      C1669   1.413       .  A
C1668      C1673   1.494       .  S
C1669      C1670   1.412       .  A
C1669      N1674   1.437       .  S
C1670      H1675   1.083       .  S
N1671      H1691   1.046       .  S
N1671      H1692   1.046       .  S
C1673      C1676   1.405       .  A
C1673      C1680   1.414       .  A
N1674      H1689   1.046       .  S
N1674      H1690   1.046       .  S
C1676      C1677   1.408       .  A
C1676      H1681   1.083       .  S
C1677      C1678   1.412       .  A
C1677      N1682   1.438       .  S
C1678      C1679   1.403       .  A
C1679      C1680   1.407       .  A
C1679      H1683   1.084       .  S
C1680      N1684   1.438       .  S
N1682      H1685   1.046       .  S
N1682      H1686   1.044       .  S
N1684      H1687   1.046       .  S
N1684      H1688   1.045       .  S
C1693      C1694   1.418       .  A
C1693      C1698   1.409       .  A
C1694      C1695   1.406       .  A
C1694      N1699   1.438       .  S
C1695      C1696   1.401       .  A
C1695      H1700   1.084       .  S
C1696      C1697   1.408       .  A
C1696      C1701   1.484       .  S
C1697      C1698   1.406       .  A
C1697      N1702   1.438       .  S
C1698      H1703   1.083       .  S
N1699      H1719   1.045       .  S
N1699      H1720   1.046       .  S
C1701      C1704   1.404       .  A
C1701      C1708   1.411       .  A
N1702      H1717   1.046       .  S
N1702      H1718   1.046       .  S
C1704      C1705   1.406       .  A
C1704      H1709   1.084       .  S
C1705      C1706   1.408       .  A
C1705      N1710   1.437       .  S
C1706      C1707   1.401       .  A
C1707      C1708   1.404       .  A
C1707      H1711   1.084       .  S
C1708      N1712   1.438       .  S
N1710      H1713   1.046       .  S
N1710      H1714   1.045       .  S
N1712      H1715   1.046       .  S
N1712      H1716   1.045       .  S
C1721      C1722   1.418       .  A
C1721      C1726   1.408       .  A
C1722      C1723   1.409       .  A
C1722      N1727   1.437       .  S
C1723      C1724   1.401       .  A
C1723      H1728   1.084       .  S
C1724      C1725   1.407       .  A
C1724      C1729   1.480       .  S
C1725      C1726   1.400       .  A
C1725      N1730   1.439       .  S
C1726      H1731   1.083       .  S
N1727      H1747   1.046       .  S
N1727      H1748   1.046       .  S
C1729      C1732   1.402       .  A
C1729      C1736   1.409       .  A
N1730      H1745   1.046       .  S
N1730      H1746   1.046       .  S
C1732      C1733   1.401       .  A
C1732      H1737   1.084       .  S
C1733      C1734   1.411       .  A
C1733      N1738   1.438       .  S
C1734      C1735   1.405       .  A
C1735      C1736   1.407       .  A
C1735      H1739   1.084       .  S
C1736      N1740   1.437       .  S
N1738      H1741   1.046       .  S
N1738      H1742   1.045       .  S
N1740      H1743   1.046       .  S
N1740      H1744   1.046       .  S
C1749      C1750   1.419       .  A
C1749      C1754   1.408       .  A
C1750      C1751   1.406       .  A
C1750      N1755   1.438       .  S
C1751      C1752   1.402       .  A
C1751      H1756   1.084       .  S
C1752      C1753   1.409       .  A
C1752      C1757   1.485       .  S
C1753      C1754   1.401       .  A
C1753      N1758   1.439       .  S
C1754      H1759   1.083       .  S
N1755      H1775   1.046       .  S
N1755      H1776   1.046       .  S
C1757      C1760   1.405       .  A
C1757      C1764   1.413       .  A
N1758      H1773   1.046       .  S
N1758      H1774   1.046       .  S
C1760      C1761   1.403       .  A
C1760      H1765   1.084       .  S
C1761      C1762   1.408       .  A
C1761      N1766   1.438       .  S
C1762      C1763   1.401       .  A
C1763      C1764   1.403       .  A
C1763      H1767   1.084       .  S
C1764      N1768   1.438       .  S
N1766      H1769   1.046       .  S
N1766      H1770   1.046       .  S
N1768      H1771   1.046       .  S
N1768      H1772   1.046       .  S
C1777      C1778   1.413       .  A
C1777      C1782   1.405       .  A
C1778      C1779   1.404       .  A
C1778      N1783   1.438       .  S
C1779      C1780   1.400       .  A
C1779      H1784   1.084       .  S
C1780      C1781   1.410       .  A
C1780      C1785   1.481       .  S
C1781      C1782   1.408       .  A
C1781      N1786   1.437       .  S
C1782      H1787   1.084       .  S
N1783      H1803   1.045       .  S
N1783      H1804   1.046       .  S
C1785      C1788   1.400       .  A
C1785      C1792   1.410       .  A
N1786      H1801   1.046       .  S
N1786      H1802   1.046       .  S
C1788      C1789   1.403       .  A
C1788      H1793   1.084       .  S
C1789      C1790   1.414       .  A
C1789      N1794   1.438       .  S
C1790      C1791   1.405       .  A
C1791      C1792   1.410       .  A
C1791      H1795   1.084       .  S
C1792      N1796   1.437       .  S
N1794      H1797   1.046       .  S
N1794      H1798   1.045       .  S
N1796      H1799   1.046       .  S
N1796      H1800   1.046       .  S
C1805      C1806   1.419       .  A
C1805      C1810   1.409       .  A
C1806      C1807   1.409       .  A
C1806      N1811   1.438       .  S
C1807      C1808   1.402       .  A
C1807      H1812   1.084       .  S
C1808      C1809   1.409       .  A
C1808      C1813   1.487       .  S
C1809      C1810   1.404       .  A
C1809      N1814   1.439       .  S
C1810      H1815   1.083       .  S
N1811      H1831   1.046       .  S
N1811      H1832   1.046       .  S
C1813      C1816   1.403       .  A
C1813      C1820   1.412       .  A
N1814      H1829   1.046       .  S
N1814      H1830   1.046       .  S
C1816      C1817   1.406       .  A
C1816      H1821   1.084       .  S
C1817      C1818   1.413       .  A
C1817      N1822   1.438       .  S
C1818      C1819   1.403       .  A
C1819      C1820   1.406       .  A
C1819      H1823   1.084       .  S
C1820      N1824   1.438       .  S
N1822      H1825   1.046       .  S
N1822      H1826   1.045       .  S
N1824      H1827   1.046       .  S
N1824      H1828   1.046       .  S
C1833      C1834   1.414       .  A
C1833      C1838   1.406       .  A
C1834      C1835   1.404       .  A
C1834      N1839   1.438       .  S
C1835      C1836   1.400       .  A
C1835      H1840   1.084       .  S
C1836      C1837   1.407       .  A
C1836      C1841   1.477       .  S
C1837      C1838   1.406       .  A
C1837      N1842   1.437   1_545  S
C1838      H1843   1.084   1_545  S
N1839      H1859   1.046       .  S
N1839      H1860   1.046       .  S
C1841      C1844   1.401       .  A
C1841      C1848   1.409       .  A
N1842      H1857   1.046       .  S
N1842      H1858   1.046   1_565  S
C1844      C1845   1.405       .  A
C1844      H1849   1.084   1_545  S
C1845      C1846   1.413       .  A
C1845      N1850   1.438   1_545  S
C1846      C1847   1.401       .  A
C1847      C1848   1.405       .  A
C1847      H1851   1.084       .  S
C1848      N1852   1.437       .  S
N1850      H1853   1.046       .  S
N1850      H1854   1.045       .  S
N1852      H1855   1.046       .  S
N1852      H1856   1.046       .  S
C1861      C1862   1.415       .  A
C1861      C1866   1.406       .  A
C1862      C1863   1.403       .  A
C1862      N1867   1.439       .  S
C1863      C1864   1.402       .  A
C1863      H1868   1.084       .  S
C1864      C1865   1.412       .  A
C1864      C1869   1.488       .  S
C1865      C1866   1.409       .  A
C1865      N1870   1.437       .  S
C1866      H1871   1.083       .  S
N1867      H1887   1.046       .  S
N1867      H1888   1.046       .  S
C1869      C1872   1.406       .  A
C1869      C1876   1.412       .  A
N1870      H1885   1.046       .  S
N1870      H1886   1.046       .  S
C1872      C1873   1.407       .  A
C1872      H1877   1.084       .  S
C1873      C1874   1.409       .  A
C1873      N1878   1.438       .  S
C1874      C1875   1.402       .  A
C1875      C1876   1.405       .  A
C1875      H1879   1.084       .  S
C1876      N1880   1.437       .  S
N1878      H1881   1.046       .  S
N1878      H1882   1.045   1_565  S
N1880      H1883   1.046       .  S
N1880      H1884   1.045       .  S
C1889      C1890   1.414       .  A
C1889      C1894   1.406       .  A
C1890      C1891   1.411       .  A
C1890      N1895   1.437       .  S
C1891      C1892   1.403       .  A
C1891      H1896   1.084       .  S
C1892      C1893   1.407       .  A
C1892      C1897   1.482       .  S
C1893      C1894   1.402       .  A
C1893      N1898   1.438       .  S
C1894      H1899   1.084       .  S
N1895      H1915   1.046       .  S
N1895      H1916   1.046       .  S
C1897      C1900   1.401       .  A
C1897      C1904   1.408       .  A
N1898      H1913   1.046       .  S
N1898      H1914   1.046       .  S
C1900      C1901   1.404       .  A
C1900      H1905   1.084       .  S
C1901      C1902   1.413       .  A
C1901      N1906   1.438       .  S
C1902      C1903   1.408       .  A
C1903      C1904   1.409       .  A
C1903      H1907   1.083       .  S
C1904      N1908   1.437       .  S
N1906      H1909   1.046       .  S
N1906      H1910   1.046       .  S
N1908      H1911   1.046       .  S
N1908      H1912   1.045       .  S
C1917      C1918   1.413       .  A
C1917      C1922   1.403       .  A
C1918      C1919   1.403       .  A
C1918      N1923   1.438       .  S
C1919      C1920   1.402       .  A
C1919      H1924   1.084       .  S
C1920      C1921   1.411       .  A
C1920      C1925   1.483       .  S
C1921      C1922   1.405       .  A
C1921      N1926   1.437       .  S
C1922      H1927   1.084       .  S
N1923      H1943   1.046       .  S
N1923      H1944   1.046       .  S
C1925      C1928   1.404       .  A
C1925      C1932   1.411       .  A
N1926      H1941   1.046       .  S
N1926      H1942   1.045       .  S
C1928      C1929   1.403       .  A
C1928      H1933   1.084       .  S
C1929      C1930   1.408       .  A
C1929      N1934   1.438       .  S
C1930      C1931   1.402       .  A
C1931      C1932   1.406       .  A
C1931      H1935   1.084       .  S
C1932      N1936   1.437       .  S
N1934      H1937   1.046       .  S
N1934      H1938   1.046       .  S
N1936      H1939   1.046       .  S
N1936      H1940   1.046       .  S
C1945      C1946   1.407       .  A
C1945      C1950   1.401       .  A
C1946      C1947   1.404       .  A
C1946      N1951   1.438       .  S
C1947      C1948   1.405       .  A
C1947      H1952   1.083       .  S
C1948      C1949   1.413       .  A
C1948      C1953   1.486       .  S
C1949      C1950   1.404       .  A
C1949      N1954   1.438       .  S
C1950      H1955   1.084       .  S
N1951      H1971   1.046       .  S
N1951      H1972   1.046       .  S
C1953      C1956   1.402       .  A
C1953      C1960   1.409       .  A
N1954      H1969   1.046       .  S
N1954      H1970   1.045       .  S
C1956      C1957   1.405       .  A
C1956      H1961   1.084       .  S
C1957      C1958   1.422       .  A
C1957      N1962   1.439       .  S
C1958      C1959   1.408       .  A
C1959      C1960   1.404       .  A
C1959      H1963   1.083       .  S
C1960      N1964   1.438       .  S
N1962      H1965   1.046       .  S
N1962      H1966   1.045       .  S
N1964      H1967   1.045       .  S
N1964      H1968   1.046       .  S
C1973      C1974   1.410       .  A
C1973      C1978   1.402       .  A
C1974      C1975   1.402       .  A
C1974      N1979   1.438       .  S
C1975      C1976   1.403       .  A
C1975      H1980   1.084       .  S
C1976      C1977   1.412       .  A
C1976      C1981   1.483       .  S
C1977      C1978   1.406       .  A
C1977      N1982   1.438       .  S
C1978      H1983   1.084       .  S
N1979      H1999   1.044       .  S
N1979      H2000   1.046       .  S
C1981      C1984   1.402       .  A
C1981      C1988   1.409       .  A
N1982      H1997   1.046       .  S
N1982      H1998   1.046       .  S
C1984      C1985   1.409       .  A
C1984      H1989   1.084       .  S
C1985      C1986   1.419       .  A
C1985      N1990   1.438       .  S
C1986      C1987   1.408       .  A
C1987      C1988   1.400       .  A
C1987      H1991   1.083       .  S
C1988      N1992   1.439       .  S
N1990      H1993   1.046       .  S
N1990      H1994   1.045       .  S
N1992      H1995   1.046       .  S
N1992      H1996   1.046       .  S
C2001      C2002   1.414       .  A
C2001      C2006   1.407       .  A
C2002      C2003   1.406       .  A
C2002      N2007   1.438       .  S
C2003      C2004   1.401       .  A
C2003      H2008   1.084       .  S
C2004      C2005   1.406       .  A
C2004      C2009   1.475       .  S
C2005      C2006   1.404       .  A
C2005      N2010   1.438       .  S
C2006      H2011   1.084       .  S
N2007      H2027   1.046       .  S
N2007      H2028   1.046       .  S
C2009      C2012   1.400       .  A
C2009      C2016   1.409       .  A
N2010      H2025   1.046       .  S
N2010      H2026   1.046       .  S
C2012      C2013   1.401       .  A
C2012      H2017   1.084       .  S
C2013      C2014   1.408       .  A
C2013      N2018   1.433       .  S
C2014      C2015   1.402       .  A
C2015      C2016   1.406       .  A
C2015      H2019   1.084       .  S
C2016      N2020   1.437       .  S
N2018      H2021   1.046       .  S
N2018      H2022   1.046       .  S
N2020      H2023   1.046       .  S
N2020      H2024   1.045       .  S
C2029      C2030   1.411       .  A
C2029      C2034   1.404       .  A
C2030      C2031   1.404       .  A
C2030      N2035   1.438       .  S
C2031      C2032   1.403       .  A
C2031      H2036   1.084       .  S
C2032      C2033   1.409       .  A
C2032      C2037   1.481       .  S
C2033      C2034   1.406       .  A
C2033      N2038   1.438   1_655  S
C2034      H2039   1.084       .  S
N2035      H2055   1.046       .  S
N2035      H2056   1.046       .  S
C2037      C2040   1.403       .  A
C2037      C2044   1.408       .  A
N2038      H2053   1.046       .  S
N2038      H2054   1.046       .  S
C2040      C2041   1.408       .  A
C2040      H2045   1.084       .  S
C2041      C2042   1.415       .  A
C2041      N2046   1.438       .  S
C2042      C2043   1.406       .  A
C2043      C2044   1.402       .  A
C2043      H2047   1.084       .  S
C2044      N2048   1.438   1_655  S
N2046      H2049   1.046       .  S
N2046      H2050   1.046       .  S
N2048      H2051   1.046       .  S
N2048      H2052   1.046       .  S
C2057      C2058   1.411       .  A
C2057      C2062   1.403       .  A
C2058      C2059   1.405       .  A
C2058      N2063   1.438       .  S
C2059      C2060   1.404       .  A
C2059      H2064   1.084       .  S
C2060      C2061   1.414       .  A
C2060      C2065   1.492       .  S
C2061      C2062   1.409       .  A
C2061      N2066   1.438       .  S
C2062      H2067   1.084       .  S
N2063      H2083   1.045       .  S
N2063      H2084   1.046       .  S
C2065      C2068   1.404       .  A
C2065      C2072   1.411       .  A
N2066      H2081   1.046       .  S
N2066      H2082   1.046       .  S
C2068      C2069   1.411       .  A
C2068      H2073   1.084       .  S
C2069      C2070   1.419       .  A
C2069      N2074   1.437       .  S
C2070      C2071   1.409       .  A
C2071      C2072   1.404       .  A
C2071      H2075   1.083       .  S
C2072      N2076   1.439       .  S
N2074      H2077   1.046       .  S
N2074      H2078   1.045       .  S
N2076      H2079   1.046       .  S
N2076      H2080   1.046       .  S
C2085      C2086   1.411       .  A
C2085      C2090   1.403       .  A
C2086      C2087   1.405       .  A
C2086      N2091   1.438       .  S
C2087      C2088   1.401       .  A
C2087      H2092   1.084       .  S
C2088      C2089   1.408       .  A
C2088      C2093   1.477       .  S
C2089      C2090   1.407       .  A
C2089      N2094   1.438       .  S
C2090      H2095   1.084       .  S
N2091      H2111   1.045       .  S
N2091      H2112   1.046       .  S
C2093      C2096   1.401       .  A
C2093      C2100   1.406       .  A
N2094      H2109   1.046       .  S
N2094      H2110   1.045       .  S
C2096      C2097   1.409       .  A
C2096      H2101   1.084       .  S
C2097      C2098   1.417       .  A
C2097      N2102   1.437       .  S
C2098      C2099   1.409       .  A
C2099      C2100   1.402       .  A
C2099      H2103   1.083       .  S
C2100      N2104   1.438       .  S
N2102      H2105   1.046       .  S
N2102      H2106   1.045       .  S
N2104      H2107   1.046       .  S
N2104      H2108   1.045       .  S
C2113      C2114   1.414       .  A
C2113      C2118   1.403       .  A
C2114      C2115   1.409       .  A
C2114      N2119   1.438   1_565  S
C2115      C2116   1.402       .  A
C2115      H2120   1.083       .  S
C2116      C2117   1.410       .  A
C2116      C2121   1.481       .  S
C2117      C2118   1.400       .  A
C2117      N2122   1.438       .  S
C2118      H2123   1.084       .  S
N2119      H2139   1.046       .  S
N2119      H2140   1.046       .  S
C2121      C2124   1.399       .  A
C2121      C2128   1.409       .  A
N2122      H2137   1.046       .  S
N2122      H2138   1.045       .  S
C2124      C2125   1.401       .  A
C2124      H2129   1.084       .  S
C2125      C2126   1.417       .  A
C2125      N2130   1.439       .  S
C2126      C2127   1.406       .  A
C2127      C2128   1.410       .  A
C2127      H2131   1.083       .  S
C2128      N2132   1.437       .  S
N2130      H2133   1.046       .  S
N2130      H2134   1.045       .  S
N2132      H2135   1.045       .  S
N2132      H2136   1.046       .  S
C2141      C2142   1.412       .  A
C2141      C2146   1.403       .  A
C2142      C2143   1.402       .  A
C2142      N2147   1.438       .  S
C2143      C2144   1.400       .  A
C2143      H2148   1.084       .  S
C2144      C2145   1.409       .  A
C2144      C2149   1.476       .  S
C2145      C2146   1.405       .  A
C2145      N2150   1.437       .  S
C2146      H2151   1.084       .  S
N2147      H2167   1.046       .  S
N2147      H2168   1.046       .  S
C2149      C2152   1.398       .  A
C2149      C2156   1.407       .  A
N2150      H2165   1.046       .  S
N2150      H2166   1.046       .  S
C2152      C2153   1.405       .  A
C2152      H2157   1.084       .  S
C2153      C2154   1.421       .  A
C2153      N2158   1.438       .  S
C2154      C2155   1.407       .  A
C2155      C2156   1.404       .  A
C2155      H2159   1.083       .  S
C2156      N2160   1.438       .  S
N2158      H2161   1.046       .  S
N2158      H2162   1.046       .  S
N2160      H2163   1.046       .  S
N2160      H2164   1.046       .  S
C2169      C2170   1.416       .  A
C2169      C2174   1.407       .  A
C2170      C2171   1.404       .  A
C2170      N2175   1.438       .  S
C2171      C2172   1.401       .  A
C2171      H2176   1.084       .  S
C2172      C2173   1.407       .  A
C2172      C2177   1.477       .  S
C2173      C2174   1.400       .  A
C2173      N2178   1.438       .  S
C2174      H2179   1.084       .  S
N2175      H2195   1.046       .  S
N2175      H2196   1.046       .  S
C2177      C2180   1.402       .  A
C2177      C2184   1.409       .  A
N2178      H2193   1.046       .  S
N2178      H2194   1.045   1_545  S
C2180      C2181   1.401       .  A
C2180      H2185   1.084       .  S
C2181      C2182   1.410       .  A
C2181      N2186   1.438       .  S
C2182      C2183   1.403       .  A
C2183      C2184   1.403       .  A
C2183      H2187   1.084       .  S
C2184      N2188   1.438       .  S
N2186      H2189   1.046       .  S
N2186      H2190   1.046       .  S
N2188      H2191   1.046   1_545  S
N2188      H2192   1.046   1_545  S
C2197      C2198   1.408       .  A
C2197      C2202   1.406       .  A
C2198      C2199   1.400       .  A
C2198      N2203   1.433       .  S
C2199      C2200   1.401       .  A
C2199      H2204   1.084       .  S
C2200      C2201   1.411       .  A
C2200      C2205   1.482       .  S
C2201      C2202   1.412       .  A
C2201      N2206   1.437       .  S
C2202      H2207   1.084       .  S
N2203      H2223   1.046       .  S
N2203      H2224   1.046       .  S
C2205      C2208   1.402       .  A
C2205      C2212   1.406       .  A
N2206      H2221   1.046       .  S
N2206      H2222   1.046       .  S
C2208      C2209   1.411       .  A
C2208      H2213   1.084       .  S
C2209      C2210   1.419       .  A
C2209      N2214   1.437       .  S
C2210      C2211   1.408       .  A
C2211      C2212   1.402       .  A
C2211      H2215   1.084       .  S
C2212      N2216   1.438       .  S
N2214      H2217   1.046       .  S
N2214      H2218   1.045       .  S
N2216      H2219   1.046       .  S
N2216      H2220   1.046       .  S
C2225      C2226   1.413       .  A
C2225      C2230   1.403       .  A
C2226      C2227   1.404       .  A
C2226      N2231   1.438       .  S
C2227      C2228   1.400       .  A
C2227      H2232   1.084       .  S
C2228      C2229   1.410       .  A
C2228      C2233   1.481       .  S
C2229      C2230   1.408       .  A
C2229      N2234   1.437       .  S
C2230      H2235   1.084       .  S
N2231      H2251   1.046       .  S
N2231      H2252   1.046       .  S
C2233      C2236   1.401       .  A
C2233      C2240   1.405       .  A
N2234      H2249   1.046       .  S
N2234      H2250   1.046       .  S
C2236      C2237   1.411       .  A
C2236      H2241   1.084       .  S
C2237      C2238   1.420       .  A
C2237      N2242   1.437       .  S
C2238      C2239   1.413       .  A
C2239      C2240   1.402       .  A
C2239      H2243   1.083       .  S
C2240      N2244   1.439       .  S
N2242      H2245   1.046       .  S
N2242      H2246   1.045       .  S
N2244      H2247   1.046       .  S
N2244      H2248   1.046       .  S
C2253      C2254   1.413       .  A
C2253      C2258   1.406       .  A
C2254      C2255   1.405       .  A
C2254      N2259   1.437   1_655  S
C2255      C2256   1.401       .  A
C2255      H2260   1.084   1_655  S
C2256      C2257   1.408       .  A
C2256      C2261   1.476       .  S
C2257      C2258   1.403       .  A
C2257      N2262   1.438       .  S
C2258      H2263   1.084       .  S
N2259      H2279   1.046       .  S
N2259      H2280   1.045   1_455  S
C2261      C2264   1.397       .  A
C2261      C2268   1.408       .  A
N2262      H2277   1.046       .  S
N2262      H2278   1.046       .  S
C2264      C2265   1.400       .  A
C2264      H2269   1.084       .  S
C2265      C2266   1.418       .  A
C2265      N2270   1.438   1_655  S
C2266      C2267   1.406       .  A
C2267      C2268   1.408       .  A
C2267      H2271   1.084       .  S
C2268      N2272   1.437       .  S
N2270      H2273   1.046       .  S
N2270      H2274   1.045       .  S
N2272      H2275   1.046       .  S
N2272      H2276   1.046       .  S
C2281      C2282   1.410       .  A
C2281      C2286   1.402       .  A
C2282      C2283   1.398       .  A
C2282      N2287   1.438       .  S
C2283      C2284   1.398       .  A
C2283      H2288   1.084       .  S
C2284      C2285   1.406       .  A
C2284      C2289   1.463       .  S
C2285      C2286   1.401       .  A
C2285      N2290   1.438       .  S
C2286      H2291   1.084       .  S
N2287      H2307   1.046       .  S
N2287      H2308   1.046       .  S
C2289      C2292   1.398       .  A
C2289      C2296   1.404       .  A
N2290      H2305   1.046       .  S
N2290      H2306   1.045       .  S
C2292      C2293   1.401       .  A
C2292      H2297   1.084       .  S
C2293      C2294   1.414       .  A
C2293      N2298   1.438       .  S
C2294      C2295   1.405       .  A
C2295      C2296   1.399       .  A
C2295      H2299   1.084       .  S
C2296      N2300   1.438       .  S
N2298      H2301   1.046       .  S
N2298      H2302   1.046       .  S
N2300      H2303   1.046       .  S
N2300      H2304   1.045       .  S
C2309      C2310   1.407       .  A
C2309      C2314   1.398       .  A
C2310      C2311   1.401       .  A
C2310      N2315   1.438       .  S
C2311      C2312   1.400       .  A
C2311      H2316   1.084       .  S
C2312      C2313   1.408       .  A
C2312      C2317   1.466       .  S
C2313      C2314   1.400       .  A
C2313      N2318   1.438       .  S
C2314      H2319   1.084       .  S
N2315      H2335   1.046       .  S
N2315      H2336   1.046       .  S
C2317      C2320   1.396       .  A
C2317      C2324   1.404       .  A
N2318      H2333   1.046       .  S
N2318      H2334   1.046       .  S
C2320      C2321   1.403       .  A
C2320      H2325   1.084       .  S
C2321      C2322   1.422       .  A
C2321      N2326   1.438       .  S
C2322      C2323   1.408       .  A
C2323      C2324   1.398       .  A
C2323      H2327   1.083       .  S
C2324      N2328   1.439       .  S
N2326      H2329   1.046       .  S
N2326      H2330   1.046       .  S
N2328      H2331   1.046       .  S
N2328      H2332   1.046       .  S
C2337      C2338   1.410       .  A
C2337      C2342   1.401       .  A
C2338      C2339   1.400       .  A
C2338      N2343   1.438       .  S
C2339      C2340   1.398       .  A
C2339      H2344   1.084       .  S
C2340      C2341   1.405       .  A
C2340      C2345   1.460       .  S
C2341      C2342   1.398       .  A
C2341      N2346   1.438       .  S
C2342      H2347   1.084       .  S
N2343      H2363   1.046       .  S
N2343      H2364   1.046       .  S
C2345      C2348   1.398       .  A
C2345      C2352   1.405       .  A
N2346      H2361   1.046       .  S
N2346      H2362   1.045       .  S
C2348      C2349   1.394       .  A
C2348      H2353   1.084       .  S
C2349      C2350   1.416       .  A
C2349      N2354   1.441       .  S
C2350      C2351   1.403       .  A
C2351      C2352   1.400       .  A
C2351      H2355   1.084       .  S
C2352      N2356   1.438       .  S
N2354      H2357   1.046   1_545  S
N2354      H2358   1.042       .  S
N2356      H2359   1.046       .  S
N2356      H2360   1.045       .  S
C2365      C2366   1.412       .  A
C2365      C2370   1.402       .  A
C2366      C2367   1.404       .  A
C2366      N2371   1.438       .  S
C2367      C2368   1.403       .  A
C2367      H2372   1.084       .  S
C2368      C2369   1.414       .  A
C2368      C2373   1.487       .  S
C2369      C2370   1.405       .  A
C2369      N2374   1.438       .  S
C2370      H2375   1.084       .  S
N2371      H2391   1.045       .  S
N2371      H2392   1.046       .  S
C2373      C2376   1.400       .  A
C2373      C2380   1.411       .  A
N2374      H2389   1.046       .  S
N2374      H2390   1.045       .  S
C2376      C2377   1.404       .  A
C2376      H2381   1.084       .  S
C2377      C2378   1.422       .  A
C2377      N2382   1.438       .  S
C2378      C2379   1.409       .  A
C2379      C2380   1.405       .  A
C2379      H2383   1.083       .  S
C2380      N2384   1.438       .  S
N2382      H2385   1.046       .  S
N2382      H2386   1.046       .  S
N2384      H2387   1.046       .  S
N2384      H2388   1.046       .  S
C2393      C2394   1.414       .  A
C2393      C2398   1.404       .  A
C2394      C2395   1.406       .  A
C2394      N2399   1.438       .  S
C2395      C2396   1.403       .  A
C2395      H2400   1.084       .  S
C2396      C2397   1.411       .  A
C2396      C2401   1.487       .  S
C2397      C2398   1.407       .  A
C2397      N2402   1.437       .  S
C2398      H2403   1.084       .  S
N2399      H2419   1.046       .  S
N2399      H2420   1.046       .  S
C2401      C2404   1.401       .  A
C2401      C2408   1.413       .  A
N2402      H2417   1.046       .  S
N2402      H2418   1.046       .  S
C2404      C2405   1.401       .  A
C2404      H2409   1.084       .  S
C2405      C2406   1.413       .  A
C2405      N2410   1.438       .  S
C2406      C2407   1.404       .  A
C2407      C2408   1.411       .  A
C2407      H2411   1.084       .  S
C2408      N2412   1.437       .  S
N2410      H2413   1.046       .  S
N2410      H2414   1.046       .  S
N2412      H2415   1.046       .  S
N2412      H2416   1.045       .  S
C2421      C2422   1.415       .  A
C2421      C2426   1.406       .  A
C2422      C2423   1.401       .  A
C2422      N2427   1.438       .  S
C2423      C2424   1.398       .  A
C2423      H2428   1.084       .  S
C2424      C2425   1.407   1_655  A
C2424      C2429   1.471       .  S
C2425      C2426   1.405   1_455  A
C2425      N2430   1.438       .  S
C2426      H2431   1.084   1_655  S
N2427      H2447   1.045       .  S
N2427      H2448   1.046       .  S
C2429      C2432   1.401   1_655  A
C2429      C2436   1.407       .  A
N2430      H2445   1.046       .  S
N2430      H2446   1.045       .  S
C2432      C2433   1.405       .  A
C2432      H2437   1.084       .  S
C2433      C2434   1.413   1_455  A
C2433      N2438   1.439       .  S
C2434      C2435   1.402       .  A
C2435      C2436   1.400       .  A
C2435      H2439   1.084       .  S
C2436      N2440   1.438       .  S
N2438      H2441   1.046       .  S
N2438      H2442   1.045       .  S
N2440      H2443   1.046       .  S
N2440      H2444   1.045       .  S
C2449      C2450   1.411       .  A
C2449      C2454   1.403       .  A
C2450      C2451   1.405       .  A
C2450      N2455   1.438       .  S
C2451      C2452   1.403       .  A
C2451      H2456   1.084       .  S
C2452      C2453   1.411       .  A
C2452      C2457   1.485       .  S
C2453      C2454   1.407       .  A
C2453      N2458   1.437       .  S
C2454      H2459   1.084       .  S
N2455      H2475   1.046       .  S
N2455      H2476   1.046       .  S
C2457      C2460   1.402       .  A
C2457      C2464   1.412       .  A
N2458      H2473   1.046       .  S
N2458      H2474   1.046       .  S
C2460      C2461   1.403       .  A
C2460      H2465   1.084       .  S
C2461      C2462   1.412       .  A
C2461      N2466   1.438       .  S
C2462      C2463   1.403       .  A
C2463      C2464   1.409       .  A
C2463      H2467   1.084       .  S
C2464      N2468   1.437       .  S
N2466      H2469   1.046       .  S
N2466      H2470   1.046       .  S
N2468      H2471   1.046       .  S
N2468      H2472   1.046       .  S
C2477      C2478   1.413       .  A
C2477      C2482   1.404       .  A
C2478      C2479   1.408       .  A
C2478      N2483   1.438       .  S
C2479      C2480   1.405       .  A
C2479      H2484   1.083       .  S
C2480      C2481   1.412       .  A
C2480      C2485   1.490       .  S
C2481      C2482   1.405       .  A
C2481      N2486   1.438       .  S
C2482      H2487   1.084       .  S
N2483      H2503   1.046       .  S
N2483      H2504   1.046       .  S
C2485      C2488   1.401       .  A
C2485      C2492   1.411       .  A
N2486      H2501   1.046       .  S
N2486      H2502   1.045       .  S
C2488      C2489   1.403       .  A
C2488      H2493   1.084       .  S
C2489      C2490   1.420       .  A
C2489      N2494   1.439       .  S
C2490      C2491   1.408       .  A
C2491      C2492   1.410       .  A
C2491      H2495   1.083       .  S
C2492      N2496   1.437       .  S
N2494      H2497   1.046       .  S
N2494      H2498   1.046       .  S
N2496      H2499   1.046       .  S
N2496      H2500   1.046       .  S
C2505      C2506   1.409       .  A
C2505      C2510   1.403       .  A
C2506      C2507   1.407       .  A
C2506      N2511   1.438       .  S
C2507      C2508   1.406       .  A
C2507      H2512   1.084       .  S
C2508      C2509   1.410       .  A
C2508      C2513   1.487       .  S
C2509      C2510   1.406       .  A
C2509      N2514   1.437       .  S
C2510      H2515   1.084       .  S
N2511      H2531   1.046       .  S
N2511      H2532   1.046   1_655  S
C2513      C2516   1.407       .  A
C2513      C2520   1.409       .  A
N2514      H2529   1.046       .  S
N2514      H2530   1.046       .  S
C2516      C2517   1.411       .  A
C2516      H2521   1.083   1_655  S
C2517      C2518   1.411       .  A
C2517      N2522   1.438   1_655  S
C2518      C2519   1.405       .  A
C2519      C2520   1.401       .  A
C2519      H2523   1.084       .  S
C2520      N2524   1.438       .  S
N2522      H2525   1.046       .  S
N2522      H2526   1.046       .  S
N2524      H2527   1.046       .  S
N2524      H2528   1.045       .  S
C2533      C2534   1.413       .  A
C2533      C2538   1.404       .  A
C2534      C2535   1.404       .  A
C2534      N2539   1.438       .  S
C2535      C2536   1.402       .  A
C2535      H2540   1.084       .  S
C2536      C2537   1.410       .  A
C2536      C2541   1.484       .  S
C2537      C2538   1.408       .  A
C2537      N2542   1.437       .  S
C2538      H2543   1.084       .  S
N2539      H2559   1.046       .  S
N2539      H2560   1.046       .  S
C2541      C2544   1.404       .  A
C2541      C2548   1.410       .  A
N2542      H2557   1.046       .  S
N2542      H2558   1.046       .  S
C2544      C2545   1.406       .  A
C2544      H2549   1.084       .  S
C2545      C2546   1.411       .  A
C2545      N2550   1.437       .  S
C2546      C2547   1.405       .  A
C2547      C2548   1.406       .  A
C2547      H2551   1.084       .  S
C2548      N2552   1.437       .  S
N2550      H2553   1.046       .  S
N2550      H2554   1.046       .  S
N2552      H2555   1.046       .  S
N2552      H2556   1.046       .  S
C2561      C2562   1.408       .  A
C2561      C2566   1.402       .  A
C2562      C2563   1.404       .  A
C2562      N2567   1.438       .  S
C2563      C2564   1.404       .  A
C2563      H2568   1.084       .  S
C2564      C2565   1.411       .  A
C2564      C2569   1.483       .  S
C2565      C2566   1.406       .  A
C2565      N2570   1.438       .  S
C2566      H2571   1.084       .  S
N2567      H2587   1.045       .  S
N2567      H2588   1.046       .  S
C2569      C2572   1.403       .  A
C2569      C2576   1.410       .  A
N2570      H2585   1.046       .  S
N2570      H2586   1.046       .  S
C2572      C2573   1.407       .  A
C2572      H2577   1.084       .  S
C2573      C2574   1.416       .  A
C2573      N2578   1.438       .  S
C2574      C2575   1.404       .  A
C2575      C2576   1.402       .  A
C2575      H2579   1.084       .  S
C2576      N2580   1.438       .  S
N2578      H2581   1.046       .  S
N2578      H2582   1.046       .  S
N2580      H2583   1.046       .  S
N2580      H2584   1.046       .  S
C2589      C2590   1.413       .  A
C2589      C2594   1.407       .  A
C2590      C2591   1.405       .  A
C2590      N2595   1.438       .  S
C2591      C2592   1.402       .  A
C2591      H2596   1.084       .  S
C2592      C2593   1.411       .  A
C2592      C2597   1.488       .  S
C2593      C2594   1.411       .  A
C2593      N2598   1.437   1_545  S
C2594      H2599   1.084       .  S
N2595      H2615   1.046       .  S
N2595      H2616   1.046       .  S
C2597      C2600   1.403       .  A
C2597      C2604   1.409       .  A
N2598      H2613   1.046       .  S
N2598      H2614   1.046       .  S
C2600      C2601   1.410       .  A
C2600      H2605   1.084       .  S
C2601      C2602   1.418       .  A
C2601      N2606   1.438       .  S
C2602      C2603   1.407       .  A
C2603      C2604   1.406       .  A
C2603      H2607   1.083       .  S
C2604      N2608   1.438       .  S
N2606      H2609   1.046       .  S
N2606      H2610   1.046       .  S
N2608      H2611   1.045       .  S
N2608      H2612   1.046   1_545  S
C2617      C2618   1.415       .  A
C2617      C2622   1.404       .  A
C2618      C2619   1.405       .  A
C2618      N2623   1.438       .  S
C2619      C2620   1.400       .  A
C2619      H2624   1.084       .  S
C2620      C2621   1.407       .  A
C2620      C2625   1.473       .  S
C2621      C2622   1.400       .  A
C2621      N2626   1.438       .  S
C2622      H2627   1.084       .  S
N2623      H2643   1.045       .  S
N2623      H2644   1.046       .  S
C2625      C2628   1.401       .  A
C2625      C2632   1.409       .  A
N2626      H2641   1.046       .  S
N2626      H2642   1.046       .  S
C2628      C2629   1.395       .  A
C2628      H2633   1.084       .  S
C2629      C2630   1.411       .  A
C2629      N2634   1.433       .  S
C2630      C2631   1.402       .  A
C2631      C2632   1.403       .  A
C2631      H2635   1.084       .  S
C2632      N2636   1.438       .  S
N2634      H2637   1.046       .  S
N2634      H2638   1.044       .  S
N2636      H2639   1.046       .  S
N2636      H2640   1.046       .  S
C2645      C2646   1.412       .  A
C2645      C2650   1.402       .  A
C2646      C2647   1.406       .  A
C2646      N2651   1.438       .  S
C2647      C2648   1.404       .  A
C2647      H2652   1.084       .  S
C2648      C2649   1.410       .  A
C2648      C2653   1.482       .  S
C2649      C2650   1.402       .  A
C2649      N2654   1.438       .  S
C2650      H2655   1.084       .  S
N2651      H2671   1.046       .  S
N2651      H2672   1.046       .  S
C2653      C2656   1.399       .  A
C2653      C2660   1.409       .  A
N2654      H2669   1.046       .  S
N2654      H2670   1.045       .  S
C2656      C2657   1.400       .  A
C2656      H2661   1.084       .  S
C2657      C2658   1.418       .  A
C2657      N2662   1.439       .  S
C2658      C2659   1.407       .  A
C2659      C2660   1.409       .  A
C2659      H2663   1.083       .  S
C2660      N2664   1.437       .  S
N2662      H2665   1.046       .  S
N2662      H2666   1.046       .  S
N2664      H2667   1.046       .  S
N2664      H2668   1.046       .  S
C2673      C2674   1.412       .  A
C2673      C2678   1.404   1_554  A
C2674      C2675   1.404       .  A
C2674      N2679   1.438       .  S
C2675      C2676   1.401       .  A
C2675      H2680   1.084       .  S
C2676      C2677   1.408   1_554  A
C2676      C2681   1.477       .  S
C2677      C2678   1.404       .  A
C2677      N2682   1.438       .  S
C2678      H2683   1.084       .  S
N2679      H2699   1.045       .  S
N2679      H2700   1.046       .  S
C2681      C2684   1.402   1_554  A
C2681      C2688   1.409       .  A
N2682      H2697   1.046       .  S
N2682      H2698   1.046       .  S
C2684      C2685   1.405       .  A
C2684      H2689   1.084       .  S
C2685      C2686   1.410   1_556  A
C2685      N2690   1.438       .  S
C2686      C2687   1.399       .  A
C2687      C2688   1.402       .  A
C2687      H2691   1.082       .  S
C2688      N2692   1.437       .  S
N2690      H2693   1.046       .  S
N2690      H2694   1.045       .  S
N2692      H2695   1.046       .  S
N2692      H2696   1.046       .  S
C2701      C2702   1.412       .  A
C2701      C2706   1.405       .  A
C2702      C2703   1.407       .  A
C2702      N2707   1.438       .  S
C2703      C2704   1.404       .  A
C2703      H2708   1.084       .  S
C2704      C2705   1.413       .  A
C2704      C2709   1.493       .  S
C2705      C2706   1.411       .  A
C2705      N2710   1.437       .  S
C2706      H2711   1.084       .  S
N2707      H2727   1.046       .  S
N2707      H2728   1.046       .  S
C2709      C2712   1.404       .  A
C2709      C2716   1.413       .  A
N2710      H2725   1.046       .  S
N2710      H2726   1.045       .  S
C2712      C2713   1.408       .  A
C2712      H2717   1.084       .  S
C2713      C2714   1.414       .  A
C2713      N2718   1.438       .  S
C2714      C2715   1.404       .  A
C2715      C2716   1.410       .  A
C2715      H2719   1.084       .  S
C2716      N2720   1.437       .  S
N2718      H2721   1.046       .  S
N2718      H2722   1.046       .  S
N2720      H2723   1.046       .  S
N2720      H2724   1.046       .  S
C2729      C2730   1.415       .  A
C2729      C2734   1.403       .  A
C2730      C2731   1.407       .  A
C2730      N2735   1.438       .  S
C2731      C2732   1.404       .  A
C2731      H2736   1.084       .  S
C2732      C2733   1.412       .  A
C2732      C2737   1.490       .  S
C2733      C2734   1.407       .  A
C2733      N2738   1.438       .  S
C2734      H2739   1.083       .  S
N2735      H2755   1.045       .  S
N2735      H2756   1.046       .  S
C2737      C2740   1.403       .  A
C2737      C2744   1.409       .  A
N2738      H2753   1.046       .  S
N2738      H2754   1.046       .  S
C2740      C2741   1.410       .  A
C2740      H2745   1.084       .  S
C2741      C2742   1.418       .  A
C2741      N2746   1.437       .  S
C2742      C2743   1.411       .  A
C2743      C2744   1.404       .  A
C2743      H2747   1.083       .  S
C2744      N2748   1.439       .  S
N2746      H2749   1.046       .  S
N2746      H2750   1.045       .  S
N2748      H2751   1.046       .  S
N2748      H2752   1.046       .  S
C2757      C2758   1.416   1_554  A
C2757      C2762   1.407       .  A
C2758      C2759   1.411       .  A
C2758      N2763   1.438       .  S
C2759      C2760   1.404   1_556  A
C2759      H2764   1.084       .  S
C2760      C2761   1.409       .  A
C2760      C2765   1.488       .  S
C2761      C2762   1.403       .  A
C2761      N2766   1.438       .  S
C2762      H2767   1.084       .  S
N2763      H2783   1.046       .  S
N2763      H2784   1.046       .  S
C2765      C2768   1.403   1_554  A
C2765      C2772   1.411       .  A
N2766      H2781   1.046       .  S
N2766      H2782   1.046       .  S
C2768      C2769   1.405       .  A
C2768      H2773   1.084       .  S
C2769      C2770   1.413   1_556  A
C2769      N2774   1.438       .  S
C2770      C2771   1.405       .  A
C2771      C2772   1.408       .  A
C2771      H2775   1.084       .  S
C2772      N2776   1.437       .  S
N2774      H2777   1.046       .  S
N2774      H2778   1.046       .  S
N2776      H2779   1.046       .  S
N2776      H2780   1.046       .  S
C2785      C2786   1.421       .  A
C2785      C2790   1.411       .  A
C2786      C2787   1.402       .  A
C2786      N2791   1.439       .  S
C2787      C2788   1.399       .  A
C2787      H2792   1.084       .  S
C2788      C2789   1.405       .  A
C2788      C2793   1.476       .  S
C2789      C2790   1.404       .  A
C2789      N2794   1.438       .  S
C2790      H2795   1.083       .  S
N2791      H2811   1.046       .  S
N2791      H2812   1.046       .  S
C2793      C2796   1.402       .  A
C2793      C2800   1.408       .  A
N2794      H2809   1.046       .  S
N2794      H2810   1.045       .  S
C2796      C2797   1.405       .  A
C2796      H2801   1.084       .  S
C2797      C2798   1.411       .  A
C2797      N2802   1.438       .  S
C2798      C2799   1.403       .  A
C2799      C2800   1.400       .  A
C2799      H2803   1.084       .  S
C2800      N2804   1.438       .  S
N2802      H2805   1.046       .  S
N2802      H2806   1.046       .  S
N2804      H2807   1.046       .  S
N2804      H2808   1.046       .  S
C2813      C2814   1.410       .  A
C2813      C2818   1.403       .  A
C2814      C2815   1.403       .  A
C2814      N2819   1.438       .  S
C2815      C2816   1.403       .  A
C2815      H2820   1.084       .  S
C2816      C2817   1.412       .  A
C2816      C2821   1.484       .  S
C2817      C2818   1.406       .  A
C2817      N2822   1.437       .  S
C2818      H2823   1.084       .  S
N2819      H2839   1.044       .  S
N2819      H2840   1.046       .  S
C2821      C2824   1.402       .  A
C2821      C2828   1.412       .  A
N2822      H2837   1.046       .  S
N2822      H2838   1.046       .  S
C2824      C2825   1.402       .  A
C2824      H2829   1.084       .  S
C2825      C2826   1.414       .  A
C2825      N2830   1.439       .  S
C2826      C2827   1.404       .  A
C2827      C2828   1.407       .  A
C2827      H2831   1.084       .  S
C2828      N2832   1.437       .  S
N2830      H2833   1.046       .  S
N2830      H2834   1.046       .  S
N2832      H2835   1.046       .  S
N2832      H2836   1.045       .  S
C2841      C2842   1.414       .  A
C2841      C2846   1.406   1_554  A
C2842      C2843   1.405       .  A
C2842      N2847   1.439       .  S
C2843      C2844   1.402       .  A
C2843      H2848   1.084       .  S
C2844      C2845   1.408   1_554  A
C2844      C2849   1.481   1_554  S
C2845      C2846   1.405       .  A
C2845      N2850   1.438       .  S
C2846      H2851   1.084       .  S
N2847      H2867   1.046       .  S
N2847      H2868   1.046       .  S
C2849      C2852   1.402   1_556  A
C2849      C2856   1.409       .  A
N2850      H2865   1.046       .  S
N2850      H2866   1.046       .  S
C2852      C2853   1.406       .  A
C2852      H2857   1.084       .  S
C2853      C2854   1.415   1_554  A
C2853      N2858   1.438       .  S
C2854      C2855   1.404       .  A
C2855      C2856   1.404       .  A
C2855      H2859   1.083       .  S
C2856      N2860   1.437       .  S
N2858      H2861   1.046       .  S
N2858      H2862   1.046       .  S
N2860      H2863   1.046       .  S
N2860      H2864   1.046       .  S
