geometry optimzed in LAMMPS
_audit_creation_date              2020-12-01 
_audit_creation_method            'lammps2cif' 
_symmetry_space_group_name_H-M    'P1' 
_symmetry_Int_Tables_number       1 
_symmetry_cell_setting            triclinic 
loop_ 
_symmetry_equiv_pos_as_xyz 
  x,y,z 
_cell_length_a                    34.49749415 
_cell_length_b                    35.14521525197202 
_cell_length_c                    35.64430639223936 
_cell_angle_alpha                 89.29334174468404 
_cell_angle_beta                  89.74596336786021 
_cell_angle_gamma                 90.17462535750914 
loop_ 
_atom_site_label 
_atom_site_type_symbol 
_atom_site_fract_x 
_atom_site_fract_y 
_atom_site_fract_z 
_atom_site_charge 
N1          N  0.36782968  0.19654502  0.49526427    -0.03200
C2          C  0.37503865  0.22012700  0.52404148    -0.00600
C3          C  0.39346166  0.25235641  0.50921343    -0.23500
C4          C  0.38926389  0.25105450  0.47149908    -0.23700
C5          C  0.36985467  0.21793748  0.46389126    -0.00700
H6          H  0.39817086  0.27946593  0.52211240     0.13100
H7          H  0.38892263  0.27651071  0.45414326     0.13100
N8          N  0.12505830  0.44379134  0.49574485    -0.03200
C9          C  0.14881572  0.45244869  0.52560659    -0.00600
C10         C  0.18059036  0.47278913  0.51250725    -0.23500
C11         C  0.17951720  0.47227706  0.47438368    -0.23700
C12         C  0.14706541  0.45150838  0.46425161    -0.00700
H13         H  0.20622457  0.48039795  0.52808007     0.13100
H14         H  0.20411556  0.47995586  0.45695341     0.13100
N15         N  0.02785264  0.56500797  0.31758495    -0.03200
C16         C  0.02132507  0.53450481  0.29632739    -0.00600
C17         C  0.01317791  0.54651706  0.26005225    -0.23500
C18         C  0.02153389  0.58481854  0.25847438    -0.23700
C19         C  0.03419489  0.59449731  0.29390657    -0.00700
H20         H  0.01175451  0.52853169  0.23564357     0.13100
H21         H  0.02709476  0.60072995  0.23279318     0.13100
N22         N  0.35126762  0.54961775  0.14524064    -0.03200
C23         C  0.36157831  0.51734874  0.16517186    -0.00600
C24         C  0.39496034  0.52533030  0.18493836    -0.23500
C25         C  0.39586312  0.56378754  0.18823013    -0.23700
C26         C  0.36509155  0.57837181  0.16770388    -0.00700
H27         H  0.41154824  0.50648624  0.20276565     0.13100
H28         H  0.41149395  0.57691675  0.21056198     0.13100
N29         N  0.45500563  0.19405411  0.36669998    -0.03200
C30         C  0.48901002  0.21345898  0.36771855    -0.00600
C31         C  0.48941064  0.23683916  0.39820699    -0.23500
C32         C  0.45214152  0.23942694  0.40975335    -0.20500
C33         C  0.43026087  0.21817988  0.38485031    -0.00700
H34         H  0.51071931  0.25821814  0.40397327     0.13100
H35         H  0.44361065  0.26282206  0.42671786     0.13100
N36         N  0.49805442  0.41231373  0.11914150    -0.03200
C37         C  0.47192049  0.38373145  0.11791664    -0.00600
C38         C  0.49014354  0.34883898  0.11728394    -0.23500
C39         C  0.52886278  0.35611543  0.12028459    -0.23700
C40         C  0.53270969  0.39520890  0.12248897    -0.00700
H41         H  0.47652994  0.32122823  0.12090099     0.13100
H42         H  0.55099488  0.33513990  0.12625087     0.13100
N43         N  0.09946723  0.41395235  0.99170999    -0.03200
C44         C  0.12280242  0.40502903  0.02170885    -0.00600
C45         C  0.16008611  0.39701974  0.01034135    -0.23500
C46         C  0.15981688  0.39684522  0.97240102    -0.23700
C47         C  0.12224807  0.40438348  0.96132576    -0.00700
H48         H  0.18338950  0.38642581  0.02781828     0.13100
H49         H  0.18289315  0.38572616  0.95501058     0.13100
N50         N  0.34293466  0.17974125  0.00316153    -0.03200
C51         C  0.31868969  0.15968588  0.98099143    -0.00600
C52         C  0.29482586  0.13708138  0.00342776    -0.23500
C53         C  0.29802027  0.15130495  0.03864946    -0.23700
C54         C  0.32402108  0.18092153  0.03622570    -0.00700
H55         H  0.27005505  0.12056777  0.99488691     0.13100
H56         H  0.27545016  0.14904991  0.05958152     0.13100
O57         O  0.09090842  0.33226887  0.74115655    -0.87900
C58         C  0.25245208  0.24867273  0.62534591     1.12100
O59         O  0.18024681  0.33007869  0.74061064    -1.35700
O60         O  0.17462463  0.21378300  0.65642500    -0.89400
O61         O  0.11838248  0.37658240  0.77669716    -0.90000
O62         O  0.15280874  0.28539040  0.81842618    -0.78900
O63         O  0.13312478  0.27540680  0.69433267    -1.01000
C64         C  0.23222880  0.20436439  0.78499582     1.22200
O65         O  0.24386248  0.29640254  0.77480462    -1.35900
Mn66       Mn  0.24009601  0.32553171  0.72079469     1.82100
O67         O  0.19888226  0.21843170  0.79018009    -0.77900
O68         O  0.20683876  0.18428198  0.70206048    -0.87300
C69         C  0.31248693  0.28026556  0.70011374     1.13300
C70         C  0.18183968  0.18439569  0.67588927     1.08000
O71         O  0.26851047  0.37938769  0.74019730    -0.78900
O72         O  0.21441525  0.26995313  0.70969226    -1.32600
O73         O  0.23348873  0.37061223  0.78646223    -0.98100
C74         C  0.26625054  0.25611265  0.86008925     1.06700
Mn75       Mn  0.25219879  0.22331598  0.70876262     1.48600
O76         O  0.24018379  0.28192271  0.86055773    -0.87300
Mn77       Mn  0.17802080  0.37504387  0.77698880     1.49600
O78         O  0.13427368  0.38898966  0.69852306    -0.91200
C79         C  0.11948804  0.25120285  0.71571594     1.19900
C80         C  0.15231839  0.41812679  0.70916430     1.12000
Mn81       Mn  0.18623032  0.27370407  0.76494924     1.81000
O82         O  0.29564152  0.25768628  0.72042225    -0.96300
Mn83       Mn  0.13476384  0.33097674  0.70079496     1.49300
C84         C  0.08910669  0.35846553  0.76529102     1.08500
Mn85       Mn  0.29108091  0.25822251  0.77527706     1.49900
C86         C  0.33032952  0.31982598  0.81670451     1.11400
O87         O  0.18298454  0.33630897  0.81745608    -1.02100
O88         O  0.25974137  0.22547059  0.65171629    -0.91800
C89         C  0.15680182  0.31845492  0.83204597     1.22700
O90         O  0.25262234  0.22100609  0.76263872    -1.02500
O91         O  0.22594802  0.27339977  0.62609467    -0.89900
O92         O  0.33523420  0.29833991  0.78841426    -0.89500
O93         O  0.17847089  0.41665585  0.73433361    -0.89500
Mn94       Mn  0.17864869  0.27207947  0.66146976     1.47900
O95         O  0.29753547  0.31324197  0.69728342    -0.78000
C96         C  0.25971582  0.38880655  0.77343213     1.15700
O97         O  0.13356250  0.24833495  0.74826581    -0.76700
O98         O  0.22835674  0.35585841  0.66869978    -0.76400
Mn99       Mn  0.23959490  0.32866356  0.82215392     1.51100
O100        O  0.28583502  0.24860199  0.83126592    -0.88700
O101        O  0.17415436  0.32737197  0.66214486    -0.96200
O102        O  0.29744323  0.32986783  0.82711518    -0.91300
C103        C  0.19662052  0.35210046  0.65095850     1.13500
N104        N  0.15071798  0.04021202  0.41759834    -0.03200
C105        C  0.17283138  0.00875029  0.41971657    -0.00600
C106        C  0.20475395  0.01704822  0.44196445    -0.23500
C107        C  0.20733908  0.05611949  0.44257236    -0.23700
C108        C  0.17536952  0.06945093  0.42326662    -0.00700
H109        H  0.22932888  0.99853134  0.44665699     0.13100
H110        H  0.23361831  0.07190514  0.44822811     0.13100
N111        N  0.32256989  0.05881795  0.11793422    -0.03200
C112        C  0.30140140  0.02735945  0.10765823    -0.00600
C113        C  0.27468592  0.03761454  0.08080301    -0.23500
C114        C  0.27358721  0.07615720  0.08007117    -0.23700
C115        C  0.29945666  0.08881986  0.10690193    -0.00700
H116        H  0.25145518  0.02002584  0.07061855     0.13100
H117        H  0.24932023  0.09175271  0.06857959     0.13100
O118        O  0.25156183  0.80560025  0.13458402    -0.87900
C119        C  0.16336304  0.69018897  0.29705067     1.12100
O120        O  0.25988585  0.80033670  0.21689841    -1.35700
O121        O  0.13194557  0.72105869  0.23090079    -0.89400
O122        O  0.30694823  0.83339757  0.15144007    -0.90000
O123        O  0.21830940  0.87840794  0.19429311    -0.78900
O124        O  0.19718368  0.75794241  0.18381600    -1.01000
C125        C  0.13710630  0.85608286  0.27251882     1.22200
O126        O  0.23377043  0.83746127  0.27695584    -1.35900
Mn127      Mn  0.25559294  0.77990143  0.27383668     1.82100
O128        O  0.15001836  0.85697592  0.23915108    -0.77900
O129        O  0.10923683  0.77561852  0.25221246    -0.87300
C130        C  0.21231946  0.76359502  0.34556654     1.13300
C131        C  0.10590158  0.74611553  0.23213676     1.08000
O132        O  0.31175342  0.79319310  0.29640068    -0.78900
O133        O  0.19650784  0.77330870  0.25548182    -1.32600
O134        O  0.31637382  0.84416294  0.26427344    -0.98100
C135        C  0.20765908  0.92778771  0.29729532     1.06700
Mn136      Mn  0.15158789  0.77946188  0.29459892     1.48600
O137        O  0.23283616  0.92436296  0.27140979    -0.87300
Mn138      Mn  0.30998637  0.83383048  0.20993929     1.49600
O139        O  0.31155640  0.75725913  0.16442561    -0.91200
C140        C  0.17219525  0.77516632  0.16660459     1.19900
C141        C  0.34099783  0.75881965  0.18513213     1.12000
Mn142      Mn  0.20360929  0.82709665  0.22481533     1.81000
O143        O  0.19123873  0.78780588  0.33209282    -0.96300
Mn144      Mn  0.25360778  0.76120004  0.17446147     1.49300
C145        C  0.27943454  0.82874776  0.12841549     1.08500
Mn146      Mn  0.19868562  0.84275497  0.32465699     1.49900
C147        C  0.27333820  0.87158888  0.35701096     1.11400
O148        O  0.27619127  0.87836600  0.21521306    -1.02100
O149        O  0.14821040  0.72205717  0.30394763    -0.91800
C150        C  0.25228129  0.89251060  0.19411113     1.22700
O151        O  0.15366762  0.83450166  0.29374370    -1.02500
O152        O  0.19188599  0.68680963  0.27438322    -0.89900
O153        O  0.24637964  0.84694550  0.35945185    -0.89500
O154        O  0.34528954  0.78485364  0.20939673    -0.89500
Mn155      Mn  0.19234549  0.72208625  0.22680616     1.47900
O156        O  0.24406273  0.75719296  0.32893769    -0.78000
C157        C  0.32934149  0.82418054  0.28956269     1.15700
O158        O  0.17023675  0.81017612  0.17433135    -0.76700
O159        O  0.28091204  0.72415057  0.26263402    -0.76400
Mn160      Mn  0.27533063  0.88202880  0.26979536     1.51100
O161        O  0.19681493  0.90064299  0.31852726    -0.88700
O162        O  0.24859583  0.71990154  0.21288945    -0.96200
O163        O  0.28321748  0.88764895  0.32651919    -0.91300
C164        C  0.27422519  0.70667541  0.23230959     1.13500
N165        N  0.99361081  0.15047464  0.36386278    -0.03200
C166        C  0.96017953  0.13882278  0.34758399    -0.00600
C167        C  0.96783352  0.10956461  0.32337288    -0.23500
C168        C  0.00732008  0.10796927  0.31984534    -0.23700
C169        C  0.02258385  0.13739114  0.34117990    -0.00700
H170        H  0.94751982  0.09698768  0.30401386     0.13100
H171        H  0.02097370  0.09332899  0.29692423     0.13100
N172        N  0.95317243  0.41002974  0.09913367    -0.03200
C173        C  0.98587173  0.38929443  0.09450312    -0.00600
C174        C  0.98007921  0.36407508  0.06557083    -0.23500
C175        C  0.94085662  0.36374151  0.05926580    -0.23700
C176        C  0.92442177  0.38682166  0.08654385    -0.00700
H177        H  0.00006651  0.34280737  0.05550760     0.13100
H178        H  0.92670758  0.34122794  0.04407538     0.13100
O179        O  0.81186217  0.24788777  0.32793597    -0.87900
C180        C  0.59969746  0.25909582  0.26239777     1.12100
O181        O  0.76256705  0.29766783  0.27625459    -1.35700
O182        O  0.67868429  0.19104076  0.23418224    -0.89400
O183        O  0.84835975  0.27417173  0.28309941    -0.90000
O184        O  0.81272536  0.27587950  0.19770965    -0.78900
O185        O  0.73971968  0.22826875  0.28323534    -1.01000
C186        C  0.71284667  0.25331282  0.15161688     1.22200
O187        O  0.74115423  0.33112798  0.21014941    -1.35900
Mn188      Mn  0.71039283  0.33050835  0.26367912     1.82100
O189        O  0.74276277  0.24520751  0.17014762    -0.77900
O190        O  0.64073509  0.22360005  0.19500193    -0.87300
C191        C  0.65108499  0.36156650  0.21161946     1.13300
C192        C  0.65284311  0.19249494  0.20877152     1.08000
O193        O  0.73058219  0.38163594  0.29173423    -0.78900
O194        O  0.69536473  0.27556829  0.23983032    -1.32600
O195        O  0.78511415  0.37000340  0.26780772    -0.98100
C196        C  0.78194995  0.35892048  0.12566076     1.06700
Mn197      Mn  0.65273937  0.28118639  0.19824073     1.48600
O198        O  0.79340560  0.37407261  0.15551407    -0.87300
Mn199      Mn  0.81638121  0.32393872  0.27842261     1.49600
O200        O  0.76094963  0.30571375  0.36251854    -0.91200
C201        C  0.76176099  0.20539499  0.27145906     1.19900
C202        C  0.79127768  0.32616640  0.36454011     1.12000
Mn203      Mn  0.75583254  0.27176872  0.22161854     1.81000
O204        O  0.66407006  0.33525196  0.19403225    -0.96300
Mn205      Mn  0.75338529  0.26334507  0.32249273     1.49300
C206        C  0.84335764  0.25012971  0.30953469     1.08500
Mn207      Mn  0.70869138  0.33586888  0.16104008     1.49900
C208        C  0.72432600  0.42292292  0.17851292     1.11400
O209        O  0.81996443  0.32944315  0.22299066    -1.02100
O210        O  0.60688553  0.28467001  0.23751171    -0.91800
C211        C  0.83100698  0.30688214  0.19972979     1.22700
O212        O  0.69435966  0.28124758  0.16075090    -1.02500
O213        O  0.62539568  0.23756536  0.27635383    -0.89900
O214        O  0.71434586  0.39523886  0.15830396    -0.89500
O215        O  0.81545130  0.32871452  0.33758463    -0.89500
Mn216      Mn  0.68450347  0.23128708  0.27659581     1.47900
O217        O  0.66240409  0.36497798  0.24502458    -0.78000
C218        C  0.76660147  0.38798368  0.29079608     1.15700
O219        O  0.77435461  0.21372372  0.23923576    -0.76700
O220        O  0.67600423  0.32399174  0.31417861    -0.76400
Mn221      Mn  0.78501573  0.37198563  0.21224009     1.51100
O222        O  0.75653425  0.33258789  0.12558928    -0.88700
O223        O  0.69538346  0.26684863  0.31903343    -0.96200
O224        O  0.74676685  0.41864105  0.20655610    -0.91300
C225        C  0.67403843  0.29205318  0.33060904     1.13500
N226        N  0.62106851  0.16231756  0.01689824    -0.03200
C227        C  0.64301900  0.15868695  0.98548121    -0.00600
C228        C  0.67473397  0.13621816  0.99271684    -0.23500
C229        C  0.67442126  0.12906077  0.03046839    -0.23700
C230        C  0.64371396  0.14946653  0.04564107    -0.00700
H231        H  0.69931038  0.13183331  0.97434241     0.13100
H232        H  0.69973209  0.11889725  0.04525345     0.13100
N233        N  0.82519146  0.44999562  0.97069120    -0.03200
C234        C  0.79544840  0.45213578  0.99530078    -0.00600
C235        C  0.76130174  0.46063453  0.97729863    -0.23500
C236        C  0.76921827  0.45779075  0.93994752    -0.23700
C237        C  0.80774339  0.44668752  0.93684482    -0.00700
H238        H  0.73255219  0.45998943  0.98960214     0.13100
H239        H  0.74698579  0.45435931  0.91890242     0.13100
N240        N  0.96693926  0.16059038  0.63940483    -0.03200
C241        C  0.93410961  0.14778118  0.65762278    -0.00600
C242        C  0.94391168  0.11627052  0.67913480    -0.23500
C243        C  0.98294361  0.11889715  0.68461312    -0.23700
C244        C  0.99614147  0.14921530  0.66269902    -0.00700
H245        H  0.92463405  0.10048919  0.69770934     0.13100
H246        H  0.99713895  0.10490225  0.70767510     0.13100
N247        N  0.96931647  0.46669709  0.84208975    -0.03200
C248        C  0.99736088  0.47547386  0.81714353    -0.00600
C249        C  0.98258503  0.50218504  0.79211109    -0.23500
C250        C  0.94282184  0.49934736  0.79565194    -0.23700
C251        C  0.93650129  0.47106635  0.82233214    -0.00700
H252        H  0.99781623  0.51421375  0.76817915     0.13100
H253        H  0.92203217  0.50834279  0.77487289     0.13100
O254        O  0.81941498  0.37278087  0.78284753    -0.87900
C255        C  0.60181305  0.33296557  0.80825450     1.12100
O256        O  0.75797322  0.32976912  0.74520785    -1.35700
O257        O  0.68530047  0.29510171  0.86345590    -0.89400
O258        O  0.84638133  0.32538286  0.75146882    -0.90000
O259        O  0.80273927  0.24561940  0.76016917    -0.78900
O260        O  0.74725767  0.33876507  0.81801816    -1.01000
C261        C  0.69927309  0.20729827  0.79659120     1.22200
O262        O  0.72313100  0.26762852  0.71759785    -1.35900
Mn263      Mn  0.70049969  0.32477745  0.72232939     1.82100
O264        O  0.73216162  0.22296187  0.80095297    -0.77900
O265        O  0.64086123  0.25923089  0.83591747    -0.87300
C266        C  0.62872779  0.28152871  0.70054568     1.13300
C267        C  0.66028734  0.26814306  0.86433508     1.08000
O268        O  0.71654011  0.35094902  0.66928275    -0.78900
O269        O  0.69082946  0.30100735  0.77814362    -1.32600
O270        O  0.76939674  0.32051686  0.66770177    -0.98100
C271        C  0.75070775  0.17886024  0.69275046     1.06700
Mn272      Mn  0.64224709  0.26419241  0.77884239     1.48600
O273        O  0.76247756  0.20663851  0.67274287    -0.87300
Mn274      Mn  0.80578217  0.32541468  0.70856970     1.49600
O275        O  0.76803795  0.41722314  0.73618069    -0.91200
C276        C  0.77160691  0.32443757  0.83792469     1.19900
C277        C  0.79671616  0.41464805  0.71370305     1.12000
Mn278      Mn  0.74875676  0.27528187  0.77327067     1.81000
O279        O  0.64151837  0.25982852  0.72421336    -0.96300
Mn280      Mn  0.75951487  0.37702399  0.77892207     1.49300
C281        C  0.84807751  0.35209596  0.77486466     1.08500
Mn282      Mn  0.68250427  0.22256003  0.71844462     1.49900
C283        C  0.68849156  0.24078268  0.63128418     1.11400
O284        O  0.80241921  0.27075058  0.70628312    -1.02100
O285        O  0.60242845  0.30859730  0.78213819    -0.91800
C286        C  0.81677643  0.24737763  0.72715509     1.22700
O287        O  0.67762169  0.22137300  0.77314810    -1.02500
O288        O  0.63184695  0.34593897  0.82389528    -0.89900
O289        O  0.67812579  0.22169047  0.66016992    -0.89500
O290        O  0.81117187  0.38318799  0.70407483    -0.89500
Mn291      Mn  0.69063437  0.33925634  0.82217884     1.47900
O292        O  0.64589425  0.31315255  0.69630218    -0.78000
C293        C  0.74948324  0.34572577  0.65437103     1.15700
O294        O  0.77866506  0.29059419  0.82803173    -0.76700
O295        O  0.67481928  0.38027670  0.73352194    -0.76400
Mn296      Mn  0.76103542  0.26518414  0.67100504     1.51100
O297        O  0.72517813  0.18162436  0.71805615    -0.88700
O298        O  0.70235075  0.38064519  0.78580258    -0.96200
O299        O  0.71668594  0.26406706  0.63162274    -0.91300
C300        C  0.67920175  0.39579551  0.76512617     1.13500
N301        N  0.12928016  0.66468210  0.02367660    -0.03200
C302        C  0.16043512  0.66356513  0.00043855    -0.00600
C303        C  0.19409374  0.65796345  0.02050764    -0.23500
C304        C  0.18403912  0.66034220  0.05740190    -0.23700
C305        C  0.14458125  0.66742782  0.05846538    -0.00700
H306        H  0.22340040  0.66010039  0.00966335     0.13100
H307        H  0.20439553  0.66459297  0.08002803     0.13100
N308        N  0.31937211  0.94581256  0.98449262    -0.03200
C309        C  0.29673700  0.94699032  0.01596737    -0.00600
C310        C  0.26565272  0.97073063  0.00941517    -0.23500
C311        C  0.26435678  0.97674451  0.97185146    -0.23700
C312        C  0.29559816  0.95771499  0.95612075    -0.00700
H313        H  0.24135624  0.97620406  0.02766614     0.13100
H314        H  0.23830825  0.98681342  0.95855821     0.13100
N315        N  0.07404104  0.02957319  0.64578848    -0.03200
C316        C  0.06303939  0.00187803  0.67078367    -0.00600
C317        C  0.04594867  0.01977181  0.70144333    -0.23500
C318        C  0.05479899  0.05734414  0.69873150    -0.23700
C319        C  0.07337481  0.06244477  0.66504061    -0.00700
H320        H  0.03744362  0.00694049  0.72794734     0.13100
H321        H  0.05506051  0.07663883  0.72211058     0.13100
N322        N  0.34122424  0.07912143  0.87693937    -0.03200
C323        C  0.32333838  0.04581923  0.88563684    -0.00600
C324        C  0.29754714  0.05070628  0.91446629    -0.23500
C325        C  0.29621442  0.08880644  0.92051260    -0.23700
C326        C  0.31632473  0.10567923  0.89099254    -0.00700
H327        H  0.27636585  0.03075964  0.92456418     0.13100
H328        H  0.27416339  0.10160824  0.93736988     0.13100
O329        O  0.34817662  0.83917953  0.73742448    -0.87900
C330        C  0.19451470  0.74273413  0.86314626     1.12100
O331        O  0.26126480  0.83936746  0.74806531    -1.35700
O332        O  0.26696246  0.71585364  0.82053263    -0.89400
O333        O  0.32227045  0.89142845  0.71255446    -0.90000
O334        O  0.28097026  0.80206559  0.66692633    -0.78900
O335        O  0.30716052  0.78068344  0.78528385    -1.01000
C336        C  0.19992473  0.72161008  0.69725425     1.22200
O337        O  0.19435255  0.81258646  0.71551964    -1.35900
Mn338      Mn  0.20454458  0.83235829  0.77183241     1.82100
O339        O  0.23397113  0.73350147  0.69075183    -0.77900
O340        O  0.22755969  0.68717710  0.78078401    -0.87300
C341        C  0.13333749  0.79061596  0.79445567     1.13300
C342        C  0.25361275  0.68604918  0.80635104     1.08000
O343        O  0.17875925  0.88603986  0.76345804    -0.78900
O344        O  0.22693844  0.77583894  0.77641769    -1.32600
O345        O  0.20420627  0.89034652  0.70976395    -0.98100
C346        C  0.16487404  0.78657563  0.62742989     1.06700
Mn347      Mn  0.18567372  0.73175750  0.77615769     1.48600
O348        O  0.19250421  0.81043398  0.62930053    -0.87300
Mn349      Mn  0.26130913  0.88924474  0.71640232     1.49600
O350        O  0.31291685  0.89513436  0.78965841    -0.91200
C351        C  0.31910020  0.75713595  0.76328054     1.19900
C352        C  0.29185615  0.92442197  0.78443188     1.12000
Mn353      Mn  0.25108064  0.78541556  0.71997278     1.81000
O354        O  0.14453098  0.76976215  0.76974399    -0.96300
Mn355      Mn  0.30951814  0.83624975  0.78328081     1.49300
C356        C  0.34992600  0.86793570  0.71546126     1.08500
Mn357      Mn  0.14536134  0.77806343  0.71474292     1.49900
C358        C  0.10481500  0.84745446  0.68543163     1.11400
O359        O  0.25225188  0.85336975  0.67496361    -1.02100
O360        O  0.18118391  0.72847795  0.83345675    -0.91800
C361        C  0.27719344  0.83669706  0.65756793     1.22700
O362        O  0.18280537  0.73736139  0.72202157    -1.02500
O363        O  0.22156529  0.76781872  0.86299992    -0.89900
O364        O  0.10448100  0.82215939  0.71145084    -0.89500
O365        O  0.26387116  0.92501782  0.76154131    -0.89500
Mn366      Mn  0.26580339  0.77340656  0.82201084     1.47900
O367        O  0.15111003  0.82134704  0.79870769    -0.78000
C368        C  0.17994495  0.90155751  0.73167065     1.15700
O369        O  0.30338552  0.75560208  0.73141961    -0.76700
O370        O  0.21872073  0.85483845  0.82423749    -0.76400
Mn371      Mn  0.19517175  0.85180322  0.67148222     1.51100
O372        O  0.14424019  0.77810110  0.65569246    -0.88700
O373        O  0.27412687  0.82886210  0.82609473    -0.96200
O374        O  0.13574636  0.85778532  0.66890011    -0.91300
C375        C  0.25171114  0.85221549  0.83877414     1.13500
N376        N  0.98483044  0.68595940  0.10881244    -0.03200
C377        C  0.95893494  0.71029717  0.09361392    -0.00600
C378        C  0.97795149  0.73515563  0.06943816    -0.23500
C379        C  0.01678698  0.72811632  0.07343308    -0.23700
C380        C  0.01967210  0.70318547  0.10368107    -0.00700
H381        H  0.96640462  0.76077224  0.05689400     0.13100
H382        H  0.03943837  0.74670060  0.06274512     0.13100
N383        N  0.97574635  0.93401703  0.35291567    -0.03200
C384        C  0.94462843  0.94592149  0.33172807    -0.00600
C385        C  0.95626835  0.97619218  0.30898436    -0.23500
C386        C  0.99584044  0.97762322  0.31060580    -0.23700
C387        C  0.00728964  0.94721973  0.33291678    -0.00700
H388        H  0.93955897  0.99055601  0.28753055     0.13100
H389        H  0.01383608  0.99277473  0.29039616     0.13100
N390        N  0.82322157  0.07244293  0.38979479    -0.03200
C391        C  0.79873767  0.04488390  0.40167438    -0.00600
C392        C  0.76702186  0.05975084  0.41944026    -0.23500
C393        C  0.76988291  0.09801803  0.41488562    -0.23700
C394        C  0.80328303  0.10518468  0.39366728    -0.00700
H395        H  0.74088310  0.04499854  0.42754816     0.13100
H396        H  0.74524598  0.11636784  0.41911463     0.13100
N397        N  0.57938861  0.02885493  0.14917869    -0.03200
C398        C  0.57966796  0.99475329  0.16790959    -0.00600
C399        C  0.55588346  0.99820685  0.19944693    -0.23500
C400        C  0.55405232  0.03648616  0.20660831    -0.23700
C401        C  0.57178770  0.05411407  0.17641960    -0.00700
H402        H  0.55206476  0.97664580  0.22114028     0.13100
H403        H  0.54736985  0.04905836  0.23342949     0.13100
O404        O  0.62835727  0.77087272  0.17308856    -0.87900
C405        C  0.83999728  0.74807521  0.20066941     1.12100
O406        O  0.69029353  0.80617690  0.21894715    -1.35700
O407        O  0.75502459  0.68672064  0.24824408    -0.89400
O408        O  0.60116384  0.80609289  0.21778796    -0.90000
O409        O  0.64371862  0.78749099  0.30254893    -0.78900
O410        O  0.69568686  0.72979092  0.20200071    -1.01000
C411        C  0.74995451  0.74449060  0.33483012     1.22200
O412        O  0.72717528  0.82942496  0.28323840    -1.35900
Mn413      Mn  0.74836132  0.82875604  0.22534266     1.82100
O414        O  0.71591241  0.74354478  0.32119671    -0.77900
O415        O  0.80984130  0.71063044  0.26918201    -0.87300
C416        C  0.82047803  0.84868337  0.26970618     1.13300
C417        C  0.78420676  0.68527033  0.27007978     1.08000
O418        O  0.73554148  0.88517306  0.20387312    -0.78900
O419        O  0.75521077  0.77115252  0.24408413    -1.32600
O420        O  0.68514815  0.88325018  0.23696722    -0.98100
C421        C  0.69864290  0.84299773  0.37346021     1.06700
Mn422      Mn  0.80664625  0.76789817  0.27550889     1.48600
O423        O  0.68792694  0.86716278  0.34882718    -0.87300
Mn424      Mn  0.64554187  0.84588266  0.22500128     1.49600
O425        O  0.67957250  0.82022387  0.13297701    -0.91200
C426        C  0.67201341  0.71266491  0.22082232     1.19900
C427        C  0.65356356  0.84550857  0.13803081     1.12000
Mn428      Mn  0.69893480  0.77569264  0.27186913     1.81000
O429        O  0.80894229  0.82193958  0.28889324    -0.96300
Mn430      Mn  0.68707603  0.77354444  0.16971644     1.49300
C431        C  0.59944300  0.78182217  0.19172945     1.08500
Mn432      Mn  0.76830072  0.82217215  0.32696937     1.49900
C433        C  0.76275000  0.91057126  0.32320690     1.11400
O434        O  0.64594350  0.84353975  0.28055313    -1.02100
O435        O  0.84176523  0.77273607  0.22670108    -0.91800
C436        C  0.62943864  0.82092242  0.30169819     1.22700
O437        O  0.77303588  0.76732854  0.32099643    -1.02500
O438        O  0.81116266  0.72592972  0.19730654    -0.89900
O439        O  0.77317650  0.87909955  0.33698088    -0.89500
O440        O  0.64373129  0.85704327  0.16978960    -0.89500
Mn441      Mn  0.75189303  0.72800971  0.20443430     1.47900
O442        O  0.80332407  0.85460489  0.23881175    -0.78000
C443        C  0.70444194  0.90063515  0.21406186     1.15700
O444        O  0.66907108  0.72349306  0.25455960    -0.76700
O445        O  0.77274783  0.81973098  0.16977583    -0.76400
Mn446      Mn  0.69140441  0.87623131  0.29136450     1.51100
O447        O  0.72476132  0.81825538  0.36779674    -0.88700
O448        O  0.74357574  0.76692551  0.16488664    -0.96200
O449        O  0.73762122  0.91331479  0.29746802    -0.91300
C450        C  0.76723285  0.78918113  0.15178265     1.13500
N451        N  0.53978717  0.88281397  0.99466868    -0.03200
C452        C  0.53808750  0.86181599  0.02620041    -0.00600
C453        C  0.51660477  0.82928217  0.02085348    -0.23500
C454        C  0.50743782  0.82925435  0.98337264    -0.23700
C455        C  0.52673150  0.86018433  0.96710791    -0.00700
H456        H  0.51394475  0.80528144  0.04002739     0.13100
H457        H  0.49779629  0.80418531  0.96866941     0.13100
N458        N  0.84905927  0.70543603  0.99871000    -0.03200
C459        C  0.85877102  0.72721720  0.96770380    -0.00600
C460        C  0.89102822  0.74872570  0.97601408    -0.23500
C461        C  0.89337036  0.74915710  0.01409459    -0.23700
C462        C  0.86246440  0.72755677  0.02759071    -0.00700
H463        H  0.90569222  0.76879169  0.95782554     0.13100
H464        H  0.90992343  0.77031592  0.02858836     0.13100
N465        N  0.80250202  0.05698191  0.57695533    -0.03200
C466        C  0.78332727  0.09009044  0.57368346    -0.00600
C467        C  0.75121706  0.08428332  0.55116008    -0.23500
C468        C  0.74463345  0.04578286  0.55273410    -0.23700
C469        C  0.77603978  0.02955423  0.57077041    -0.00700
H470        H  0.72835003  0.10480734  0.54636983     0.13100
H471        H  0.71598148  0.03345928  0.55108362     0.13100
N472        N  0.61622488  0.04994712  0.88081644    -0.03200
C473        C  0.64221781  0.07823085  0.89020017    -0.00600
C474        C  0.66971892  0.06320839  0.91434994    -0.23500
C475        C  0.66521153  0.02483276  0.91445634    -0.23700
C476        C  0.63520132  0.01651694  0.89021763    -0.00700
H477        H  0.69552457  0.07680013  0.92485402     0.13100
H478        H  0.68755884  0.00571335  0.92426130     0.13100
N479        N  0.94367628  0.93225631  0.62479440    -0.03200
C480        C  0.97525910  0.94155607  0.64510765    -0.00600
C481        C  0.96699432  0.97111972  0.66852511    -0.23500
C482        C  0.92834952  0.97810721  0.66481785    -0.23700
C483        C  0.91350238  0.94797193  0.64426842    -0.00700
H484        H  0.98462035  0.98146382  0.69096378     0.13100
H485        H  0.91292201  0.99637587  0.68383741     0.13100
N486        N  0.99459932  0.70767174  0.89215402    -0.03200
C487        C  0.96186269  0.72893052  0.89358555    -0.00600
C488        C  0.96892713  0.76223287  0.91214596    -0.23500
C489        C  0.00753963  0.76255257  0.92039382    -0.23700
C490        C  0.02389263  0.73089661  0.90342113    -0.00700
H491        H  0.95013919  0.78680272  0.91305557     0.13100
H492        H  0.02247994  0.78827124  0.92842874     0.13100
N493        N  0.95357283  0.96987481  0.44298544    -0.05800
N494        N  0.94161337  0.95595764  0.41052651    -0.58000
N495        N  0.97666594  0.95862405  0.53545525    -0.05500
N496        N  0.98308775  0.94071199  0.56758807    -0.60100
N497        N  0.93931455  0.96444160  0.53150666    -0.05100
N498        N  0.92004575  0.95135034  0.56145490    -0.57900
N499        N  0.99132221  0.96557848  0.44657240    -0.04800
N500        N  0.00552025  0.94888462  0.41592028    -0.60400
C501        C  0.97399558  0.94227744  0.39354174     0.96300
C502        C  0.94775471  0.93602278  0.58402849     0.96100
N503        N  0.05079189  0.05292705  0.55286441    -0.06000
N504        N  0.06455577  0.06290231  0.58573983    -0.58500
N505        N  0.06349123  0.02198690  0.46515168    -0.04100
N506        N  0.09188637  0.00905470  0.44370349    -0.59800
N507        N  0.06640914  0.05924384  0.46808699    -0.06100
N508        N  0.09638992  0.07215724  0.44860313    -0.58800
N509        N  0.04635868  0.01560138  0.55148244    -0.03800
N510        N  0.05657206  0.99995323  0.58426973    -0.59900
Mn511      Mn  0.02043740  0.98895506  0.49940748     1.18400
C512        C  0.06852004  0.02994746  0.60524906     0.98400
C513        C  0.11184408  0.04079917  0.43298399     0.99100
N514        N  0.88492815  0.03477443  0.52636037    -0.06100
N515        N  0.85517147  0.02255247  0.54648664    -0.62400
N516        N  0.90174134  0.07932558  0.44601526    -0.04900
N517        N  0.87995890  0.09711935  0.42103699    -0.63100
N518        N  0.89924924  0.04231054  0.44158627    -0.05600
N519        N  0.87631736  0.03467550  0.41321266    -0.62600
N520        N  0.88936095  0.07167633  0.53042132    -0.04500
N521        N  0.86266522  0.08506940  0.55319602    -0.63300
Mn522      Mn  0.91865751  0.00192243  0.48533035     1.10700
C523        C  0.84170263  0.05404446  0.56353354     0.99600
C524        C  0.86313412  0.06901529  0.40102615     0.99700
N525        N  0.00848261  0.12767586  0.45922813    -0.05600
N526        N  0.02464503  0.13689283  0.42616795    -0.61000
N527        N  0.95781155  0.12854929  0.54593107    -0.04900
N528        N  0.94172265  0.14481881  0.57568639    -0.57700
N529        N  0.99537756  0.12478101  0.55051484    -0.06200
N530        N  0.00541967  0.13853080  0.58377186    -0.60500
N531        N  0.97104868  0.13428763  0.45789223    -0.05200
N532        N  0.96165740  0.14910135  0.42506529    -0.57700
Mn533      Mn  0.03124373  0.09232149  0.50767270     1.20200
Mn534      Mn  0.92972773  0.10449003  0.49544852     1.10100
Cl535      Cl  0.97526870  0.04670955  0.49693541    -0.85700
C536        C  0.99490257  0.15099212  0.40493369     0.96600
C537        C  0.97175385  0.15166982  0.59927736     0.96400
N538        N  0.94297265  0.50641321  0.06910263    -0.05800
N539        N  0.92578235  0.47390154  0.07982096    -0.58000
N540        N  0.99248464  0.59123057  0.08143270    -0.05500
N541        N  0.00915142  0.62115698  0.09708070    -0.60100
N542        N  0.95469388  0.59638269  0.07913963    -0.05100
N543        N  0.94554834  0.62975014  0.09335063    -0.57900
N544        N  0.98092706  0.50263820  0.07107760    -0.04800
N545        N  0.99013145  0.46819676  0.08302623    -0.60400
C546        C  0.95579500  0.45043439  0.08897664     0.96300
C547        C  0.97951679  0.64510994  0.10485601     0.96100
N548        N  0.06547114  0.59546094  0.99008866    -0.06000
N549        N  0.08733921  0.62578133  0.98291892    -0.58500
N550        N  0.05087040  0.50007499  0.01471334    -0.04100
N551        N  0.06361142  0.46574315  0.02502875    -0.59800
N552        N  0.05475905  0.50492650  0.97816815    -0.06100
N553        N  0.07032211  0.47369619  0.96320025    -0.58800
N554        N  0.06195546  0.59007084  0.02647264    -0.03800
N555        N  0.08127020  0.61666027  0.04472180    -0.59900
Mn556      Mn  0.02233899  0.54566971  0.04962624     1.18400
C557        C  0.09689677  0.63911519  0.01728115     0.98400
C558        C  0.07542035  0.44887107  0.99268838     0.99100
N559        N  0.89119879  0.61327081  0.01470062    -0.06100
N560        N  0.87131273  0.64282629  0.02818160    -0.62400
N561        N  0.88817723  0.52822258  0.96705868    -0.04900
N562        N  0.87048374  0.50050064  0.94877590    -0.63100
N563        N  0.88515527  0.52276350  0.00347672    -0.05600
N564        N  0.86566705  0.49100144  0.01054667    -0.62600
N565        N  0.89485878  0.61726234  0.97809016    -0.04500
N566        N  0.87744877  0.64889984  0.96634829    -0.63300
Mn567      Mn  0.91722249  0.55986531  0.04312772     1.10700
C568        C  0.86241841  0.66516034  0.99761917     0.99600
C569        C  0.85654744  0.47708620  0.97626224     0.99700
N570        N  0.99489666  0.52544284  0.91437391    -0.05600
N571        N  0.00516839  0.49723212  0.89244185    -0.61000
N572        N  0.96792122  0.61649518  0.92218413    -0.04900
N573        N  0.95874378  0.64917107  0.90621635    -0.57700
N574        N  0.00592471  0.61325035  0.92482512    -0.06200
N575        N  0.02288131  0.64477824  0.91135133    -0.60500
N576        N  0.95718071  0.53038543  0.91302653    -0.05200
N577        N  0.94108789  0.50551728  0.89068049    -0.57700
Mn578      Mn  0.03175369  0.55986530  0.95079945     1.20200
Mn579      Mn  0.92643659  0.57357745  0.94432031     1.10100
Cl580      Cl  0.97445584  0.56024764  0.99704687    -0.85700
C581        C  0.97122035  0.48502408  0.87771565     0.96600
C582        C  0.99281652  0.66683747  0.89923001     0.96400
N583        N  0.43614838  0.14487987  0.98602739    -0.05800
N584        N  0.40500438  0.16239430  0.97277622    -0.58000
N585        N  0.52441706  0.13138968  0.02876697    -0.05500
N586        N  0.55695328  0.14383059  0.04451605    -0.60100
N587        N  0.52683317  0.13498289  0.99194815    -0.05100
N588        N  0.56055769  0.15025784  0.98234073    -0.57900
N589        N  0.43397752  0.14222101  0.02291546    -0.04800
N590        N  0.40188008  0.15833428  0.03514292    -0.60400
C591        C  0.38403890  0.17127066  0.00374016     0.96300
C592        C  0.57924532  0.15618040  0.01516152     0.96100
N593        N  0.50527209  0.02579611  0.08244305    -0.06000
N594        N  0.53225808  0.00695362  0.10151928    -0.58500
N595        N  0.41819760  0.07560366  0.08157028    -0.04100
N596        N  0.38673762  0.08951585  0.09879881    -0.59800
N597        N  0.41449794  0.03856732  0.07810315    -0.06100
N598        N  0.38128834  0.02678679  0.09296757    -0.58800
N599        N  0.51068418  0.06269847  0.08531669    -0.03800
N600        N  0.54173601  0.06953179  0.10585488    -0.59900
Mn601      Mn  0.47199188  0.10407775  0.05579161     1.18400
C602        C  0.55531824  0.03455704  0.11601617     0.98400
C603        C  0.36395145  0.05834357  0.10666941     0.99100
N604        N  0.52604961  0.07736843  0.92221766    -0.06100
N605        N  0.55971831  0.08737594  0.90620144    -0.62400
N606        N  0.43120580  0.05356010  0.91297519    -0.04900
N607        N  0.40088772  0.04521619  0.89248496    -0.63100
N608        N  0.43342992  0.09049240  0.91750037    -0.05600
N609        N  0.40303683  0.10751947  0.90140969    -0.62600
N610        N  0.52102292  0.04022623  0.91954454    -0.04500
N611        N  0.55105656  0.02471484  0.90167906    -0.63300
Mn612      Mn  0.48096924  0.11326143  0.95353666     1.10700
C613        C  0.57518550  0.05437739  0.89273233     0.99600
C614        C  0.38279502  0.07860310  0.88526874     0.99700
N615        N  0.41075217  0.98341322  0.00919799    -0.05600
N616        N  0.37735177  0.96766989  0.01935566    -0.61000
N617        N  0.50211273  0.97202363  0.97796628    -0.04900
N618        N  0.52287397  0.94352357  0.96507677    -0.57700
N619        N  0.49904204  0.96937216  0.01470735    -0.06200
N620        N  0.51813373  0.93935382  0.02718371    -0.60500
N621        N  0.41338845  0.98605369  0.97227668    -0.05200
N622        N  0.38144063  0.97172702  0.95698369    -0.57700
Mn623      Mn  0.45745475  0.00372689  0.04681110     1.20200
Mn624      Mn  0.46711744  0.01235834  0.94475223     1.10100
Cl625      Cl  0.46966199  0.05835733  0.00011336    -0.85700
C626        C  0.35937553  0.95974114  0.98663397     0.96600
C627        C  0.53296804  0.92319068  0.99593320     0.96400
O628        O  0.75595157  0.68090210  0.74671133    -0.87900
C629        C  0.64191455  0.82612689  0.85921055     1.12100
O630        O  0.74880062  0.76743082  0.74904081    -1.35700
O631        O  0.62007755  0.75226000  0.81838101    -0.89400
O632        O  0.79993261  0.71019959  0.70993774    -0.90000
O633        O  0.71014426  0.74822269  0.66877261    -0.78900
O634        O  0.69155370  0.71923641  0.78787402    -1.01000
C635        C  0.62482643  0.81939050  0.69366210     1.22200
O636        O  0.71701781  0.83076157  0.71534931    -1.35900
Mn637      Mn  0.73841875  0.82358425  0.77205579     1.82100
O638        O  0.64012450  0.78680809  0.69075926    -0.77900
O639        O  0.59475347  0.78730631  0.77169102    -0.87300
C640        C  0.68903102  0.89228595  0.79248475     1.13300
C641        C  0.59264361  0.76072626  0.79639780     1.08000
O642        O  0.79320121  0.85207251  0.76163381    -0.78900
O643        O  0.68168607  0.79783923  0.77618803    -1.32600
O644        O  0.79683330  0.82308565  0.71055303    -0.98100
C645        C  0.69402264  0.86447294  0.62690567     1.06700
Mn646      Mn  0.63342425  0.83420905  0.77204351     1.48600
O647        O  0.71890943  0.83770165  0.62810523    -0.87300
Mn648      Mn  0.79810313  0.76820808  0.71391567     1.49600
O649        O  0.80718387  0.72337710  0.79650466    -0.91200
C650        C  0.66974827  0.70334488  0.76646305     1.19900
C651        C  0.83699859  0.74246592  0.78708278     1.12000
Mn652      Mn  0.69302903  0.77368080  0.72140713     1.81000
O653        O  0.66811716  0.87916462  0.76815544    -0.96300
Mn654      Mn  0.74798711  0.72155957  0.78793194     1.49300
C655        C  0.78272290  0.68071749  0.72217737     1.08500
Mn656      Mn  0.67804270  0.87740528  0.71333124     1.49900
C657        C  0.74845184  0.91945775  0.68592808     1.11400
O658        O  0.76447466  0.77576573  0.67022113    -1.02100
O659        O  0.62737799  0.83669806  0.82843264    -0.91800
C660        C  0.74363140  0.75296147  0.65467615     1.22700
O661        O  0.63763352  0.83953355  0.71802650    -1.02500
O662        O  0.66962288  0.80239294  0.86169638    -0.89900
O663        O  0.72126287  0.91983065  0.71037743    -0.89500
O664        O  0.83723049  0.76549749  0.75917093    -0.89500
Mn665      Mn  0.67928093  0.75963445  0.82255022     1.47900
O666        O  0.72156503  0.87639199  0.79751007    -0.78000
C667        C  0.81027385  0.84716354  0.73063856     1.15700
O668        O  0.66667250  0.71832021  0.73397351    -0.76700
O669        O  0.76230428  0.81125810  0.82680569    -0.76400
Mn670      Mn  0.75886913  0.83130691  0.67194840     1.51100
O671        O  0.67888869  0.87846964  0.65597105    -0.88700
O672        O  0.73602864  0.75701483  0.82813297    -0.96200
O673        O  0.76190782  0.88901945  0.67279280    -0.91300
C674        C  0.75821911  0.77918256  0.84290191     1.13500
N675        N  0.33602959  0.94200713  0.51572299    -0.03200
C676        C  0.30628979  0.94562548  0.49149891    -0.00600
C677        C  0.27166160  0.95093952  0.51023534    -0.23500
C678        C  0.27969012  0.94608349  0.54730138    -0.23700
C679        C  0.31910010  0.93870150  0.54968457    -0.00700
H680        H  0.24292347  0.94990808  0.49818664     0.13100
H681        H  0.25816071  0.94164230  0.56913139     0.13100
N682        N  0.10578742  0.68383229  0.48158269    -0.03200
C683        C  0.12532638  0.67781407  0.51417232    -0.00600
C684        C  0.14965577  0.64703580  0.51038317    -0.23500
C685        C  0.15142521  0.63987739  0.47277593    -0.23700
C686        C  0.12922595  0.66780678  0.45511203    -0.00700
H687        H  0.17016229  0.63659360  0.53093955     0.13100
H688        H  0.17432774  0.62314684  0.46050263     0.13100
N689        N  0.84955493  0.42962937  0.51282157    -0.03200
C690        C  0.82815172  0.43443175  0.48099213    -0.00600
C691        C  0.80100579  0.46260522  0.48654501    -0.23500
C692        C  0.80033087  0.46928367  0.52421809    -0.23700
C693        C  0.82621208  0.44383057  0.54064822    -0.00700
H694        H  0.77857249  0.47130402  0.46712770     0.13100
H695        H  0.77651555  0.48371433  0.53769148     0.13100
N696        N  0.58436933  0.21095630  0.47482204    -0.03200
C697        C  0.58285069  0.22943042  0.50800091    -0.00600
C698        C  0.56144045  0.26200901  0.50472868    -0.23500
C699        C  0.55148683  0.26536671  0.46799212    -0.23700
C700        C  0.57040078  0.23638788  0.44883329    -0.00700
H701        H  0.55927114  0.28442913  0.52501317     0.13100
H702        H  0.53938512  0.29131665  0.45665718     0.13100
N703        N  0.64071963  0.96589252  0.48521041    -0.03200
C704        C  0.66053422  0.96203272  0.45273215    -0.00600
C705        C  0.69135599  0.98705574  0.45294660    -0.23500
C706        C  0.69877469  0.99263719  0.49027243    -0.23700
C707        C  0.66854215  0.97532685  0.51003464    -0.00700
H708        H  0.71354709  0.98824588  0.43145205     0.13100
H709        H  0.72769959  0.99786416  0.50033851     0.13100
N710        N  0.82319867  0.67182314  0.49741608    -0.03200
C711        C  0.80346476  0.66040161  0.52930394    -0.00600
C712        C  0.78095468  0.62906090  0.52085492    -0.23500
C713        C  0.77787440  0.62841491  0.48268103    -0.23700
C714        C  0.80133731  0.65738240  0.46861040    -0.00700
H715        H  0.76153295  0.61406890  0.53987421     0.13100
H716        H  0.75541318  0.61293958  0.46839694     0.13100
N717        N  0.47359815  0.38027646  0.92255790    -0.03200
C718        C  0.44224420  0.35847759  0.92874061    -0.00600
C719        C  0.45194351  0.32790664  0.95157010    -0.23500
C720        C  0.49162047  0.32872531  0.95461870    -0.23700
C721        C  0.50420212  0.35813727  0.93118095    -0.00700
H722        H  0.43379857  0.30357702  0.95839957     0.13100
H723        H  0.50887457  0.30518677  0.96489228     0.13100
N724        N  0.47552674  0.20347620  0.61506638    -0.03200
C725        C  0.50383533  0.22770623  0.60161931    -0.00600
C726        C  0.48782527  0.25085491  0.57419752    -0.23500
C727        C  0.44901214  0.24943987  0.57992868    -0.23700
C728        C  0.44184754  0.22332432  0.60827372    -0.00700
H729        H  0.50118647  0.27272578  0.55728881     0.13100
H730        H  0.43067659  0.27291589  0.57250492     0.13100
N731        N  0.47541730  0.91683691  0.37942782    -0.03200
C732        C  0.44466640  0.89450483  0.39137146    -0.00600
C733        C  0.45701618  0.87263915  0.42182037    -0.23500
C734        C  0.49652013  0.87487346  0.42242567    -0.23700
C735        C  0.50720889  0.89637389  0.39136964    -0.00700
H736        H  0.44159716  0.85024374  0.43648709     0.13100
H737        H  0.51466368  0.85431415  0.43682493     0.13100
N738        N  0.47813576  0.66265107  0.12355602    -0.03200
C739        C  0.45190024  0.64550163  0.14638898    -0.00600
C740        C  0.47107534  0.62253678  0.17180011    -0.23500
C741        C  0.50947015  0.63048247  0.16758720    -0.23700
C742        C  0.51229568  0.65980768  0.14159858    -0.00700
H743        H  0.45963608  0.61200425  0.19801790     0.13100
H744        H  0.52959009  0.62576497  0.19015883     0.13100
N745        N  0.85792141  0.53398686  0.35486557    -0.03200
C746        C  0.86345553  0.49992890  0.33886214    -0.00600
C747        C  0.87880291  0.50426203  0.30299984    -0.23500
C748        C  0.87825267  0.54218342  0.29511308    -0.23700
C749        C  0.86242320  0.55913408  0.32630347    -0.00700
H750        H  0.88253805  0.48229578  0.28226973     0.13100
H751        H  0.88097503  0.55470661  0.26731428     0.13100
N752        N  0.60928896  0.56650030  0.11889567    -0.03200
C753        C  0.58903993  0.58654292  0.14534934    -0.00600
C754        C  0.56583577  0.56083329  0.16546116    -0.23500
C755        C  0.58083589  0.52567341  0.15952810    -0.23700
C756        C  0.61167594  0.53130973  0.13543297    -0.00700
H757        H  0.54684816  0.56620168  0.18885898     0.13100
H758        H  0.57615128  0.50127160  0.17785691     0.13100
N759        N  0.44693349  0.65452806  0.85366349    -0.03200
C760        C  0.47683345  0.64685934  0.83011963    -0.00600
C761        C  0.46589644  0.61768310  0.80682023    -0.23500
C762        C  0.42702340  0.61258130  0.81196663    -0.23700
C763        C  0.41492393  0.64153870  0.83541471    -0.00700
H764        H  0.48136186  0.60591391  0.78357776     0.13100
H765        H  0.40992216  0.59622292  0.79272851     0.13100
N766        N  0.49621585  0.92985561  0.60752483    -0.03200
C767        C  0.46235896  0.91088873  0.60170350    -0.00600
C768        C  0.46638032  0.88814045  0.57063359    -0.23500
C769        C  0.50532669  0.88627437  0.56349101    -0.23700
C770        C  0.52354893  0.90659997  0.59174771    -0.00700
H771        H  0.44500887  0.86871688  0.55955472     0.13100
H772        H  0.51751813  0.86432001  0.54623151     0.13100
N773        N  0.89579698  0.55616606  0.66004038    -0.03200
C774        C  0.90442430  0.58661643  0.68094380    -0.00600
C775        C  0.93448879  0.57733939  0.70504809    -0.23500
C776        C  0.93806742  0.53848545  0.70351637    -0.23700
C777        C  0.91064664  0.52614214  0.67855829    -0.00700
H778        H  0.94707635  0.59511382  0.72638149     0.13100
H779        H  0.95445936  0.52075234  0.72219742     0.13100
N780        N  0.58993839  0.54612502  0.85041128    -0.03200
C781        C  0.57709817  0.57421045  0.82644389    -0.00600
C782        C  0.54694735  0.56003955  0.80537789    -0.23500
C783        C  0.54647984  0.52156638  0.81095404    -0.23700
C784        C  0.57903246  0.51350395  0.83218936    -0.00700
H785        H  0.53362110  0.57385132  0.78166881     0.13100
H786        H  0.53181788  0.50208266  0.79243196     0.13100
N787        N  0.31609110  0.52597136  0.89291240    -0.03200
C788        C  0.29743736  0.49177308  0.89193342    -0.00600
C789        C  0.25921775  0.49636288  0.90360286    -0.23500
C790        C  0.25243504  0.53444513  0.90442009    -0.23700
C791        C  0.28676747  0.55165908  0.89393818    -0.00700
H792        H  0.23619194  0.47546437  0.90198844     0.13100
H793        H  0.22396527  0.54734227  0.90388802     0.13100
N794        N  0.08921450  0.58210399  0.64176193    -0.03200
C795        C  0.09157220  0.61652859  0.65748554    -0.00600
C796        C  0.07851232  0.61527975  0.69430187    -0.23500
C797        C  0.07071813  0.57809374  0.70239391    -0.23700
C798        C  0.08029344  0.55817924  0.67051808    -0.00700
H799        H  0.08102279  0.63759215  0.71484252     0.13100
H800        H  0.06699251  0.56632966  0.73041158     0.13100
N801        N  0.03112839  0.48137334  0.47846723    -0.05800
N802        N  0.06257792  0.46388813  0.46532183    -0.58000
N803        N  0.94103556  0.47422941  0.52333399    -0.05500
N804        N  0.91090616  0.45655271  0.53945665    -0.60100
N805        N  0.93892165  0.47184096  0.48674637    -0.05100
N806        N  0.90740791  0.45268340  0.47735753    -0.57900
N807        N  0.03295215  0.48322558  0.51528560    -0.04800
N808        N  0.06539781  0.46721220  0.52774005    -0.60400
C809        C  0.08379029  0.45452745  0.49646400     0.96300
C810        C  0.89024337  0.44217264  0.51034016     0.96100
N811        N  0.93577792  0.57999988  0.57614537    -0.06000
N812        N  0.91143075  0.59058038  0.60259471    -0.58500
N813        N  0.02822747  0.55250086  0.57164887    -0.04100
N814        N  0.05749263  0.54395310  0.59398163    -0.59800
N815        N  0.02369527  0.58970229  0.56949909    -0.06100
N816        N  0.05010544  0.60674208  0.59017898    -0.58800
N817        N  0.93995302  0.54283943  0.57698016    -0.03800
N818        N  0.91767829  0.52776487  0.60305435    -0.59900
Mn819      Mn  0.98583259  0.51245406  0.54751137     1.18400
C820        C  0.90090499  0.55763684  0.62009645     0.98400
C821        C  0.07120322  0.57798751  0.60556293     0.99100
N822        N  0.92622219  0.53203147  0.42377434    -0.06100
N823        N  0.89859634  0.51351600  0.40628419    -0.62400
N824        N  0.00799688  0.58033223  0.40953389    -0.04900
N825        N  0.02085815  0.59464445  0.37754077    -0.63100
N826        N  0.01247293  0.54304217  0.41039616    -0.05600
N827        N  0.02760664  0.53200066  0.37818728    -0.62600
N828        N  0.92110460  0.56906116  0.42029031    -0.04500
N829        N  0.89018344  0.57591977  0.39946827    -0.63300
Mn830      Mn  0.97799429  0.50619485  0.44934539     1.10700
C831        C  0.87633647  0.54092350  0.39041678     0.99600
C832        C  0.03270470  0.56449844  0.35771309     0.99700
N833        N  0.01260609  0.65005594  0.50461331    -0.05600
N834        N  0.04484030  0.66751258  0.51481065    -0.61000
N835        N  0.91782090  0.63932779  0.47578274    -0.04900
N836        N  0.88411914  0.65333864  0.46405253    -0.57700
N837        N  0.92025652  0.64154687  0.51244064    -0.06200
N838        N  0.88798268  0.65698578  0.52625670    -0.60500
N839        N  0.01128641  0.64701802  0.46791042    -0.05200
N840        N  0.04336146  0.66203080  0.45266067    -0.57700
Mn841      Mn  0.97285008  0.61649102  0.54133911     1.20200
Mn842      Mn  0.96449217  0.60998578  0.44284362     1.10100
Cl843      Cl  0.97588140  0.56134730  0.49508786    -0.85700
C844        C  0.06400790  0.67558241  0.48232476     0.96600
C845        C  0.86546490  0.66502082  0.49567612     0.96400
N846        N  0.50344104  0.47817964  0.04755061    -0.05800
N847        N  0.52162549  0.46077984  0.07539044    -0.58000
N848        N  0.45529043  0.46437683  0.96779324    -0.05500
N849        N  0.44129436  0.43550002  0.94875968    -0.60100
N850        N  0.49311858  0.46685438  0.96292896    -0.05100
N851        N  0.50526492  0.43932509  0.94103588    -0.57900
N852        N  0.46563244  0.47571636  0.05265024    -0.04800
N853        N  0.45780670  0.45663730  0.08391013    -0.60400
C854        C  0.49292655  0.44707543  0.09799894     0.96300
C855        C  0.47270109  0.41996410  0.93200910     0.96100
N856        N  0.38080428  0.55782815  0.96247551    -0.06000
N857        N  0.35822892  0.56591231  0.93337505    -0.58500
N858        N  0.39260779  0.53012938  0.05531259    -0.04100
N859        N  0.37704944  0.51767691  0.08746802    -0.59800
N860        N  0.38932266  0.56731805  0.05234058    -0.06100
N861        N  0.37156635  0.58062117  0.08300162    -0.58800
N862        N  0.38425319  0.52074183  0.96651286    -0.03800
N863        N  0.36402321  0.50295486  0.94029181    -0.59900
Mn864      Mn  0.42372738  0.49707738  0.01067149     1.18400
C865        C  0.34803403  0.53144758  0.91931049     0.98400
C866        C  0.36339088  0.54928180  0.10495119     0.99100
N867        N  0.55436572  0.53350864  0.94415474    -0.06100
N868        N  0.57091483  0.51878181  0.91370678    -0.62400
N869        N  0.56104256  0.57992262  0.03118404    -0.04900
N870        N  0.57882588  0.59562499  0.06055578    -0.63100
N871        N  0.56462818  0.54273635  0.03297926    -0.05600
N872        N  0.58528866  0.53260758  0.06266649    -0.62600
N873        N  0.55164553  0.57073949  0.94041023    -0.04500
N874        N  0.56621771  0.58178846  0.90723380    -0.63300
Mn875      Mn  0.52976664  0.50477076  0.99649892     1.10700
C876        C  0.57894455  0.54918517  0.89065724     0.99600
C877        C  0.59478314  0.56565544  0.07987452     0.99700
N878        N  0.45198119  0.63284084  0.03512771    -0.05600
N879        N  0.44151679  0.64775772  0.06729457    -0.61000
N880        N  0.47911865  0.62718292  0.94365035    -0.04900
N881        N  0.48714439  0.64118149  0.90981763    -0.57700
N882        N  0.44114969  0.62447331  0.94827759    -0.06200
N883        N  0.42306690  0.63667014  0.91756810    -0.60500
N884        N  0.48993353  0.63524235  0.03105130    -0.05200
N885        N  0.50544250  0.65140236  0.06084569    -0.57700
Mn886      Mn  0.41473122  0.59689541  0.99958115     1.20200
Mn887      Mn  0.52139493  0.60470241  0.98621712     1.10100
Cl888      Cl  0.47235034  0.55093999  0.99798406    -0.85700
C889        C  0.47479955  0.65945160  0.08331732     0.96600
C890        C  0.45203909  0.64760816  0.89382672     0.96400
N891        N  0.49980667  0.11603590  0.57074867    -0.05800
N892        N  0.51109894  0.14766953  0.58783286    -0.58000
N893        N  0.47135379  0.02217622  0.57634979    -0.05500
N894        N  0.46136511  0.98953354  0.59244890    -0.60100
N895        N  0.50920880  0.02403349  0.57198149    -0.05100
N896        N  0.52546213  0.99203892  0.58496840    -0.57900
N897        N  0.46208543  0.11233330  0.57437076    -0.04800
N898        N  0.44725244  0.14136684  0.59342148    -0.60400
C899        C  0.47824756  0.16348983  0.60239174     0.96300
C900        C  0.49515821  0.97084730  0.59863945     0.96100
N901        N  0.39859761  0.01231681  0.48478404    -0.06000
N902        N  0.37894900  0.98123487  0.47662602    -0.58500
N903        N  0.39683224  0.10369959  0.51559319    -0.04100
N904        N  0.38556323  0.13724843  0.52771701    -0.59800
N905        N  0.39304090  0.10179527  0.47882351    -0.06100
N906        N  0.37904650  0.13430426  0.46558383    -0.58800
N907        N  0.40233517  0.01504018  0.52133614    -0.03800
N908        N  0.38521307  0.98592542  0.53846420    -0.59900
Mn909      Mn  0.43220669  0.06321632  0.54777889     1.18400
C910        C  0.37047105  0.96479343  0.51031515     0.98400
C911        C  0.37405521  0.15591478  0.49641491     0.99100
N912        N  0.56651424  0.03064499  0.50309793    -0.06100
N913        N  0.59296156  0.00696460  0.51594266    -0.62400
N914        N  0.55211478  0.11638311  0.46072329    -0.04900
N915        N  0.56424001  0.14920814  0.44534135    -0.63100
N916        N  0.55622785  0.11752020  0.49756913    -0.05600
N917        N  0.57209293  0.15005980  0.50726171    -0.62600
N918        N  0.56305252  0.02725139  0.46647168    -0.04500
N919        N  0.58714473  0.00085113  0.45401604    -0.63300
Mn920      Mn  0.53404370  0.07234076  0.53675809     1.10700
C921        C  0.60528708  0.98795448  0.48543095     0.99600
C922        C  0.57733828  0.16987224  0.47490646     0.99700
N923        N  0.44573341  0.10211560  0.40810957    -0.05600
N924        N  0.42841611  0.13266192  0.39328951    -0.61000
N925        N  0.49220694  0.01261265  0.41021435    -0.04900
N926        N  0.50588743  0.98069389  0.39494089    -0.57700
N927        N  0.45423727  0.00997354  0.41415552    -0.06200
N928        N  0.44176488  0.97645878  0.40155156    -0.60500
N929        N  0.48346777  0.10458645  0.40355764    -0.05200
N930        N  0.49239332  0.13647760  0.38527953    -0.57700
Mn931      Mn  0.42150946  0.05620174  0.44550141     1.20200
Mn932      Mn  0.52366066  0.06500891  0.43386720     1.10100
Cl933      Cl  0.47813459  0.06416339  0.49088076    -0.85700
C934        C  0.45787998  0.15381719  0.37826297     0.96600
C935        C  0.47407766  0.95815535  0.38880363     0.96400
O936        O  0.11822338  0.38366356  0.29312953    -0.87900
C937        C  0.19107080  0.18283093  0.30759582     1.12100
O938        O  0.17632947  0.33638201  0.25039629    -1.35700
O939        O  0.22195736  0.26760741  0.36251769    -0.89400
O940        O  0.16149545  0.42156590  0.26514373    -0.90000
O941        O  0.25838075  0.38724798  0.26354737    -0.78900
O942        O  0.16497657  0.32466489  0.32926822    -1.01000
C943        C  0.30739790  0.28826443  0.29167131     1.22200
O944        O  0.24301973  0.31274892  0.21556654    -1.35900
Mn945      Mn  0.18799859  0.28337490  0.22145120     1.82100
O946        O  0.29056818  0.31953592  0.29773213    -0.77900
O947        O  0.25995153  0.22795147  0.33059902    -0.87300
C948        C  0.23897004  0.21786844  0.19515182     1.13300
C949        C  0.24933540  0.24336608  0.36073304     1.08000
O950        O  0.15887394  0.29969358  0.16900885    -0.78900
O951        O  0.21358492  0.27363312  0.27643261    -1.32600
O952        O  0.18222720  0.35553452  0.17393661    -0.98100
C953        C  0.32912097  0.35364851  0.18836345     1.06700
Mn954      Mn  0.25513199  0.22962009  0.27360969     1.48600
O955        O  0.29838338  0.36560536  0.17329489    -0.87300
Mn956      Mn  0.17074459  0.38696952  0.21883073     1.49600
O957        O  0.09018086  0.32734692  0.24093644    -0.91200
C958        C  0.18677376  0.34958153  0.34082628     1.19900
C959        C  0.08634399  0.35493091  0.21767629     1.12000
Mn960      Mn  0.23461604  0.33121204  0.27246706     1.81000
O961        O  0.25990564  0.23240197  0.21827922    -0.96300
Mn962      Mn  0.12865532  0.32779025  0.28684472     1.49300
C963        C  0.13103201  0.41615732  0.28483028     1.08500
Mn964      Mn  0.29268450  0.27843054  0.21264773     1.49900
C965        C  0.27427210  0.29454395  0.12734426     1.11400
O966        O  0.22790709  0.39345563  0.21285221    -1.02100
O967        O  0.21465387  0.18423292  0.27973287    -0.91800
C968        C  0.25231887  0.40606501  0.23377250     1.22700
O969        O  0.29388580  0.26919469  0.26681727    -1.02500
O970        O  0.17855309  0.21234375  0.32287585    -0.89900
O971        O  0.29264204  0.28049435  0.15489281    -0.89500
O972        O  0.11110653  0.38141795  0.21397113    -0.89500
Mn973      Mn  0.17651070  0.26960278  0.32393031     1.47900
O974        O  0.20531757  0.23203779  0.19188397    -0.78000
C975        C  0.15979177  0.33410536  0.15756108     1.15700
O976        O  0.21981085  0.35288451  0.32569197    -0.76700
O977        O  0.13672994  0.25065554  0.23381184    -0.76400
Mn978      Mn  0.24002524  0.35626025  0.17401971     1.51100
O979        O  0.33018293  0.32573521  0.21158721    -0.88700
O980        O  0.13453101  0.27335092  0.28860176    -0.96200
O981        O  0.24721962  0.31866891  0.13030879    -0.91300
C982        C  0.12239771  0.25005029  0.26652447     1.13500
C983        C  0.64699124  0.66925459  0.78108167    -0.05200
C984        C  0.62874761  0.64373952  0.75690457    -0.32600
C985        C  0.60768554  0.61192131  0.77100304     0.36600
C986        C  0.60258128  0.60583424  0.81043073    -0.05500
C987        C  0.62171323  0.63074971  0.83444226    -0.32500
C988        C  0.64401860  0.66148447  0.82038055     0.36500
H989        H  0.63167770  0.64778008  0.72684877     0.16900
O990        O  0.59482032  0.58531993  0.74598517    -0.60000
H991        H  0.61924391  0.62660186  0.86451066     0.16900
O992        O  0.66221001  0.68430255  0.84582690    -0.60100
H993        H  0.68694249  0.67120627  0.85160334     0.43900
H994        H  0.57739311  0.59895210  0.72836577     0.43900
C995        C  0.80140028  0.64551842  0.71230166    -0.05200
C996        C  0.82535977  0.63047458  0.74020617    -0.32600
C997        C  0.86041327  0.61348717  0.73084633     0.36600
C998        C  0.87131584  0.61023908  0.69265648    -0.05500
C999        C  0.84507029  0.62215991  0.66485138    -0.32500
C1000       C  0.81014994  0.63920745  0.67451767     0.36500
H1001       H  0.81909303  0.63574901  0.76953750     0.16900
O1002       O  0.88322619  0.59988678  0.75938836    -0.60000
H1003       H  0.85148310  0.61844621  0.63542809     0.16900
O1004       O  0.78618151  0.65257441  0.64686149    -0.60100
H1005       H  0.76747608  0.63166447  0.64238169     0.43900
H1006       H  0.89665974  0.62255943  0.76945466     0.43900
C1007       C  0.59507688  0.83654332  0.66773501    -0.05200
C1008       C  0.59657931  0.83072237  0.62886967    -0.32600
C1009       C  0.57504131  0.85379868  0.60357496     0.36600
C1010       C  0.55074877  0.88362293  0.61689388    -0.05500
C1011       C  0.54904968  0.88865680  0.65597692    -0.32500
C1012       C  0.57044527  0.86573671  0.68093835     0.36500
H1013       H  0.61657740  0.80996576  0.61772956     0.16900
O1014       O  0.58142329  0.84955023  0.56584401    -0.60000
H1015       H  0.53067307  0.91049330  0.66766187     0.16900
O1016       O  0.56779389  0.87299520  0.71859518    -0.60100
H1017       H  0.54770873  0.85516647  0.72832728     0.43900
H1018       H  0.57219144  0.82356148  0.55991361     0.43900
C1019       C  0.55771702  0.73736746  0.80158522    -0.05200
C1020       C  0.54649147  0.71194459  0.77387576    -0.32600
C1021       C  0.52056050  0.68214481  0.78227687     0.36600
C1022       C  0.50582409  0.67702700  0.81940603    -0.05500
C1023       C  0.51585531  0.70420452  0.84625459    -0.32500
C1024       C  0.54178077  0.73367336  0.83778483     0.36500
H1025       H  0.55907745  0.71418145  0.74601525     0.16900
O1026       O  0.50865971  0.65968809  0.75338030    -0.60000
H1027       H  0.50395820  0.70282069  0.87429446     0.16900
O1028       O  0.55200781  0.75869771  0.86532732    -0.60100
H1029       H  0.56717992  0.74348749  0.88370752     0.43900
H1030       H  0.53082965  0.64269476  0.74813206     0.43900
C1031       C  0.75878423  0.73202192  0.62066978    -0.05200
C1032       C  0.73354961  0.71163856  0.59770751    -0.32600
C1033       C  0.74731145  0.69036158  0.56705798     0.36600
C1034       C  0.78785403  0.68762897  0.55886499    -0.05500
C1035       C  0.81295135  0.70968930  0.58069703    -0.32500
C1036       C  0.79891078  0.73188429  0.61080245     0.36500
H1037       H  0.70267975  0.71221280  0.60338121     0.16900
O1038       O  0.72035228  0.67355326  0.54434144    -0.60000
H1039       H  0.84382161  0.70897577  0.57512117     0.16900
O1040       O  0.82523456  0.75197171  0.63146154    -0.60100
H1041       H  0.82691358  0.77733620  0.61901847     0.43900
H1042       H  0.70765610  0.65356044  0.56002261     0.43900
C1043       C  0.68577353  0.88614673  0.59226738    -0.05200
C1044       C  0.65148053  0.90751515  0.59152448    -0.32600
C1045       C  0.64615244  0.93735499  0.56625331     0.36600
C1046       C  0.67616401  0.94816125  0.54153384    -0.05500
C1047       C  0.71132562  0.92778273  0.54317220    -0.32500
C1048       C  0.71584591  0.89638327  0.56738979     0.36500
H1049       H  0.62954484  0.90312955  0.61279512     0.16900
O1050       O  0.61170600  0.95644347  0.56719801    -0.60000
H1051       H  0.73554476  0.93596131  0.52567730     0.16900
O1052       O  0.75053091  0.87740999  0.56794860    -0.60100
H1053       H  0.76651077  0.89064655  0.58682205     0.43900
H1054       H  0.61457684  0.97537526  0.58741044     0.43900
C1055       C  0.93224630  0.72821457  0.86375814    -0.05200
C1056       C  0.93720521  0.75148257  0.83162224    -0.32600
C1057       C  0.90710802  0.75619057  0.80551800     0.36600
C1058       C  0.87157589  0.73704601  0.81128610    -0.05500
C1059       C  0.86798177  0.71225889  0.84244839    -0.32500
C1060       C  0.89754048  0.70815423  0.86858508     0.36500
H1061       H  0.96406179  0.76709816  0.82750760     0.16900
O1062       O  0.91276513  0.77952325  0.77485079    -0.60000
H1063       H  0.84154971  0.69636980  0.84756873     0.16900
O1064       O  0.89115187  0.68628128  0.89997730    -0.60100
H1065       H  0.88459022  0.66048737  0.89083191     0.43900
H1066       H  0.90800336  0.80565457  0.78395018     0.43900
C1067       C  0.88575584  0.92217161  0.66616223    -0.05200
C1068       C  0.86485084  0.93559953  0.69789156    -0.32600
C1069       C  0.84361309  0.91104825  0.72179563     0.36600
C1070       C  0.84108280  0.87214184  0.71389708    -0.05500
C1071       C  0.86192976  0.85848402  0.68267518    -0.32500
C1072       C  0.88362505  0.88275494  0.65904100     0.36500
H1073       H  0.86401967  0.96545848  0.70445338     0.16900
O1074       O  0.82327507  0.92601563  0.75123103    -0.60000
H1075       H  0.86013285  0.82865293  0.67548445     0.16900
O1076       O  0.90243295  0.86729504  0.62890893    -0.60100
H1077       H  0.88373161  0.86905509  0.60791856     0.43900
H1078       H  0.84082724  0.92367501  0.77310367     0.43900
C1079       C  0.64208437  0.98246881  0.86468638    -0.05200
C1080       C  0.64027934  0.98573141  0.82522959    -0.32600
C1081       C  0.65553072  0.95702814  0.80150870     0.36600
C1082       C  0.67446244  0.92454219  0.81666041    -0.05500
C1083       C  0.67554947  0.92094494  0.85587318    -0.32500
C1084       C  0.65866626  0.94846181  0.87955024     0.36500
H1085       H  0.62819829  0.01117361  0.81258830     0.16900
O1086       O  0.65269709  0.96158120  0.76337256    -0.60000
H1087       H  0.68826406  0.89572138  0.86844563     0.16900
O1088       O  0.65746359  0.94134334  0.91753816    -0.60100
H1089       H  0.68474957  0.93777193  0.92549352     0.43900
H1090       H  0.67404127  0.97926205  0.75631764     0.43900
C1091       C  0.76120541  0.95381067  0.66498552    -0.05200
C1092       C  0.79187815  0.94904176  0.63907315    -0.32600
C1093       C  0.79527270  0.97168855  0.60709249     0.36600
C1094       C  0.76937257  0.00162295  0.60127999    -0.05500
C1095       C  0.74046701  0.00851862  0.62844483    -0.32500
C1096       C  0.73636776  0.98503745  0.66017520     0.36500
H1097       H  0.81084064  0.92467986  0.64104052     0.16900
O1098       O  0.82259148  0.96259916  0.58072008    -0.60000
H1099       H  0.72044646  0.03180399  0.62484943     0.16900
O1100       O  0.70615273  0.99113106  0.68442399    -0.60100
H1101       H  0.71687405  0.00801112  0.70393862     0.43900
H1102       H  0.80866561  0.94714792  0.56193720     0.43900
C1103       C  0.83027293  0.74135201  0.93797603    -0.05200
C1104       C  0.80390862  0.71635363  0.92115137    -0.32600
C1105       C  0.77966018  0.72843376  0.89130050     0.36600
C1106       C  0.78116693  0.76649660  0.87704181    -0.05500
C1107       C  0.80619038  0.79181796  0.89494281    -0.32500
C1108       C  0.82959375  0.78012378  0.92525012     0.36500
H1109       H  0.80278426  0.68691037  0.93044119     0.16900
O1110       O  0.75480439  0.70237926  0.87607531    -0.60000
H1111       H  0.80756423  0.82123153  0.88556659     0.16900
O1112       O  0.85097063  0.80765981  0.94261970    -0.60100
H1113       H  0.83503260  0.81553522  0.96438280     0.43900
H1114       H  0.77058826  0.68795252  0.85783571     0.43900
C1115       C  0.55551857  0.85115468  0.93797758    -0.05200
C1116       C  0.58003760  0.81949844  0.94390194    -0.32600
C1117       C  0.61267707  0.81378570  0.92163266     0.36600
C1118       C  0.62050444  0.83914083  0.89198598    -0.05500
C1119       C  0.59684234  0.87140887  0.88695870    -0.32500
C1120       C  0.56447012  0.87740350  0.90943949     0.36500
H1121       H  0.57473205  0.79964859  0.96685708     0.16900
O1122       O  0.63586324  0.78279242  0.92837531    -0.60000
H1123       H  0.60140051  0.89053900  0.86327990     0.16900
O1124       O  0.53997290  0.90700646  0.90120220    -0.60100
H1125       H  0.55636768  0.93026915  0.90016519     0.43900
H1126       H  0.62395644  0.76154520  0.91434741     0.43900
C1127       C  0.79384659  0.65234148  0.29384052    -0.05200
C1128       C  0.78158714  0.61596321  0.28389033    -0.32600
C1129       C  0.80204230  0.58429553  0.29697238     0.36600
C1130       C  0.83439134  0.58942007  0.32062587    -0.05500
C1131       C  0.84317184  0.62497561  0.33444035    -0.32500
C1132       C  0.82306606  0.65658185  0.32161653     0.36500
H1133       H  0.75910714  0.61223726  0.26310930     0.16900
O1134       O  0.79222149  0.54881468  0.28435438    -0.60000
H1135       H  0.86792855  0.62893271  0.35256010     0.16900
O1136       O  0.83557226  0.69199670  0.33255781    -0.60100
H1137       H  0.83834322  0.69097148  0.36022409     0.43900
H1138       H  0.80253773  0.54760600  0.25837475     0.43900
C1139       C  0.64830051  0.68167560  0.20219163    -0.05200
C1140       C  0.62770241  0.65439502  0.22318651    -0.32600
C1141       C  0.60831316  0.62378166  0.20581672     0.36600
C1142       C  0.60755716  0.62012374  0.16576590    -0.05500
C1143       C  0.62737913  0.64813923  0.14489655    -0.32500
C1144       C  0.64733717  0.67832991  0.16231838     0.36500
H1145       H  0.62778254  0.65586484  0.25352202     0.16900
O1146       O  0.59133896  0.59713342  0.22898296    -0.60000
H1147       H  0.62787093  0.64646682  0.11456578     0.16900
O1148       O  0.66683181  0.70396379  0.13974503    -0.60100
H1149       H  0.64657816  0.71756607  0.12518833     0.43900
H1150       H  0.61236704  0.57918316  0.23568855     0.43900
C1151       C  0.56397359  0.76241140  0.18196139    -0.05200
C1152       C  0.55739786  0.75796858  0.14334063    -0.32600
C1153       C  0.54124073  0.72448546  0.12978731     0.36600
C1154       C  0.53001045  0.69563469  0.15512201    -0.05500
C1155       C  0.53174296  0.70300861  0.19415077    -0.32500
C1156       C  0.54898883  0.73587005  0.20752219     0.36500
H1157       H  0.56959331  0.77829655  0.12337408     0.16900
O1158       O  0.53972702  0.71901332  0.09182416    -0.60000
H1159       H  0.52102604  0.68289670  0.21492933     0.16900
O1160       O  0.55480574  0.73979132  0.24536590    -0.60100
H1161       H  0.57873204  0.72524622  0.25100206     0.43900
H1162       H  0.51799847  0.73507437  0.08284813     0.43900
C1163       C  0.59603327  0.83783454  0.32393242    -0.05200
C1164       C  0.59417907  0.87828330  0.32624796    -0.32600
C1165       C  0.56485165  0.89742947  0.34614412     0.36600
C1166       C  0.53554835  0.87690139  0.36478377    -0.05500
C1167       C  0.53609305  0.83644865  0.36111797    -0.32500
C1168       C  0.56588764  0.81712052  0.34134602     0.36500
H1169       H  0.61647652  0.89577111  0.31317568     0.16900
O1170       O  0.56651658  0.93627361  0.34883483    -0.60000
H1171       H  0.51364331  0.81941501  0.37448662     0.16900
O1172       O  0.56507013  0.77821963  0.33936943    -0.60100
H1173       H  0.58080568  0.76918090  0.36091798     0.43900
H1174       H  0.55275841  0.94608894  0.32636771     0.43900
C1175       C  0.68593377  0.85085160  0.41155952    -0.05200
C1176       C  0.71468835  0.86973186  0.43113921    -0.32600
C1177       C  0.70781683  0.90634219  0.44418600     0.36600
C1178       C  0.66976725  0.92229036  0.44132287    -0.05500
C1179       C  0.63927079  0.89833339  0.43077590    -0.32500
C1180       C  0.64728208  0.86213103  0.41682489     0.36500
H1181       H  0.74450982  0.86021935  0.42889274     0.16900
O1182       O  0.73919329  0.92733846  0.45578024    -0.60000
H1183       H  0.60960204  0.90837679  0.43145903     0.16900
O1184       O  0.61776925  0.84007660  0.40367466    -0.60100
H1185       H  0.60786370  0.82583954  0.42591003     0.43900
H1186       H  0.75576741  0.91025214  0.47125480     0.43900
C1187       C  0.76150278  0.72269038  0.36981765    -0.05200
C1188       C  0.75342920  0.68372700  0.37360050    -0.32600
C1189       C  0.76882819  0.66171334  0.40352845     0.36600
C1190       C  0.79059496  0.67893169  0.43273260    -0.05500
C1191       C  0.79803739  0.71822991  0.42913136    -0.32500
C1192       C  0.78453678  0.73970151  0.39798470     0.36500
H1193       H  0.73710117  0.66961974  0.35189178     0.16900
O1194       O  0.76460924  0.62290846  0.40239288    -0.60000
H1195       H  0.81417082  0.73264146  0.45077136     0.16900
O1196       O  0.79321780  0.77777945  0.39596006    -0.60100
H1197       H  0.81938210  0.77924735  0.38438306     0.43900
H1198       H  0.73629679  0.61798095  0.40357807     0.43900
C1199       C  0.62680084  0.85748398  0.10826678    -0.05200
C1200       C  0.63691824  0.85416801  0.07060931    -0.32600
C1201       C  0.60842244  0.85774652  0.04303620     0.36600
C1202       C  0.56929351  0.86351452  0.05353195    -0.05500
C1203       C  0.55949208  0.86881081  0.09069873    -0.32500
C1204       C  0.58770823  0.86671128  0.11804602     0.36500
H1205       H  0.66645901  0.84752277  0.06263755     0.16900
O1206       O  0.61887507  0.85468867  0.00607930    -0.60000
H1207       H  0.52956386  0.87366175  0.09870746     0.16900
O1208       O  0.57564720  0.87040754  0.15458527    -0.60100
H1209       H  0.57527558  0.89819642  0.15911049     0.43900
H1210       H  0.63037556  0.82898510  0.00363884     0.43900
C1211       C  0.78949843  0.77726491  0.11712720    -0.05200
C1212       C  0.77745349  0.74471001  0.09707553    -0.32600
C1213       C  0.80003589  0.72889336  0.06791569     0.36600
C1214       C  0.83652843  0.74453713  0.05824604    -0.05500
C1215       C  0.84762318  0.77814627  0.07760841    -0.32500
C1216       C  0.82458856  0.79444578  0.10600335     0.36500
H1217       H  0.75036420  0.73079316  0.10444661     0.16900
O1218       O  0.78632936  0.69745911  0.04979735    -0.60000
H1219       H  0.87467624  0.79239145  0.07165490     0.16900
O1220       O  0.83728311  0.82693997  0.12303904    -0.60100
H1221       H  0.85117008  0.81818798  0.14579499     0.43900
H1222       H  0.77079059  0.70766751  0.02860551     0.43900
C1223       C  0.61827516  0.97595122  0.17607289    -0.05200
C1224       C  0.63471264  0.97938395  0.21217317    -0.32600
C1225       C  0.66840288  0.96017518  0.22243115     0.36600
C1226       C  0.68643091  0.93529738  0.19730911    -0.05500
C1227       C  0.67345526  0.93542870  0.15977968    -0.32500
C1228       C  0.63959120  0.95561154  0.14909771     0.36500
H1229       H  0.62099295  0.99662765  0.23337025     0.16900
O1230       O  0.68087885  0.96230985  0.25884145    -0.60000
H1231       H  0.68722543  0.91698271  0.13965246     0.16900
O1232       O  0.62594754  0.95260896  0.11320552    -0.60100
H1233       H  0.63599139  0.97545267  0.09974397     0.43900
H1234       H  0.69457168  0.98707897  0.26038118     0.43900
C1235       C  0.79444162  0.01080007  0.37974161    -0.05200
C1236       C  0.80508959  0.97587875  0.39505617    -0.32600
C1237       C  0.79764639  0.94278531  0.37549318     0.36600
C1238       C  0.77854895  0.94482809  0.34032140    -0.05500
C1239       C  0.77018140  0.98032459  0.32421234    -0.32500
C1240       C  0.77778073  0.01329196  0.34386741     0.36500
H1241       H  0.81802941  0.97420466  0.42268304     0.16900
O1242       O  0.80665179  0.90867370  0.39238656    -0.60000
H1243       H  0.75608606  0.98253103  0.29719178     0.16900
O1244       O  0.76733818  0.04775144  0.32855536    -0.60100
H1245       H  0.74046593  0.05219985  0.33744901     0.43900
H1246       H  0.83358917  0.90319650  0.38434435     0.43900
C1247       C  0.91066862  0.92094880  0.31956189    -0.05200
C1248       C  0.88109134  0.93637717  0.29642630    -0.32600
C1249       C  0.85323078  0.91330771  0.27859746     0.36600
C1250       C  0.85264010  0.87361928  0.28466346    -0.05500
C1251       C  0.88062643  0.85827399  0.30942322    -0.32500
C1252       C  0.90939008  0.88121705  0.32632960     0.36500
H1253       H  0.87956843  0.96674750  0.29145670     0.16900
O1254       O  0.82553451  0.93029743  0.25664397    -0.60000
H1255       H  0.88050396  0.82799027  0.31547463     0.16900
O1256       O  0.93680016  0.86405074  0.34844359    -0.60100
H1257       H  0.92589777  0.86450929  0.37421790     0.43900
H1258       H  0.83671864  0.93092571  0.23096840     0.43900
C1259       C  0.92729579  0.72395743  0.11776499    -0.05200
C1260       C  0.93431547  0.75303613  0.14388647    -0.32600
C1261       C  0.90653922  0.76216031  0.17137047     0.36600
C1262       C  0.87131902  0.74191341  0.17276105    -0.05500
C1263       C  0.86470334  0.71355508  0.14585572    -0.32500
C1264       C  0.89231908  0.70421299  0.11927621     0.36500
H1265       H  0.96187709  0.76774766  0.14379401     0.16900
O1266       O  0.91467178  0.78960120  0.19723058    -0.60000
H1267       H  0.83776264  0.69769539  0.14507766     0.16900
O1268       O  0.88416047  0.67646477  0.09392254    -0.60100
H1269       H  0.87601013  0.65368389  0.10873551     0.43900
H1270       H  0.91200733  0.81418924  0.18357080     0.43900
C1271       C  0.17575235  0.69607248  0.67384019    -0.05200
C1272       C  0.13564727  0.70434165  0.67309588    -0.32600
C1273       C  0.10931019  0.68233248  0.65435904     0.36600
C1274       C  0.12002025  0.64546761  0.64596237    -0.05500
C1275       C  0.15989574  0.63599238  0.64467461    -0.32500
C1276       C  0.18817515  0.66199239  0.65752124     0.36500
H1277       H  0.12319679  0.72674846  0.68956972     0.16900
O1278       O  0.07095427  0.69277974  0.65453433    -0.60000
H1279       H  0.16856836  0.60720597  0.63819729     0.16900
O1280       O  0.22637975  0.65152035  0.65897123    -0.60100
H1281       H  0.22955511  0.63875177  0.68374646     0.43900
H1282       H  0.06361002  0.69494245  0.62771927     0.43900
C1283       C  0.28488607  0.58415952  0.86745945    -0.05200
C1284       C  0.29761593  0.61937081  0.87940436    -0.32600
C1285       C  0.28945779  0.65213572  0.85866394     0.36600
C1286       C  0.26776912  0.65022816  0.82455749    -0.05500
C1287       C  0.25678889  0.61433110  0.81157808    -0.32500
C1288       C  0.26517306  0.58140207  0.83280516     0.36500
H1289       H  0.31195608  0.62195461  0.90623669     0.16900
O1290       O  0.30000977  0.68618211  0.87418561    -0.60000
H1291       H  0.24040981  0.61185581  0.78586345     0.16900
O1292       O  0.25293517  0.54670626  0.82011264    -0.60100
H1293       H  0.22496772  0.54521347  0.82655500     0.43900
H1294       H  0.32831126  0.68849564  0.86992188     0.43900
C1295       C  0.34691732  0.72823631  0.77742615    -0.05200
C1296       C  0.34055456  0.68970727  0.76994235    -0.32600
C1297       C  0.35977455  0.66095635  0.79038849     0.36600
C1298       C  0.38782647  0.67044385  0.81791929    -0.05500
C1299       C  0.39429241  0.70938136  0.82475090    -0.32500
C1300       C  0.37396702  0.73784046  0.80530037     0.36500
H1301       H  0.31844397  0.68166451  0.75001506     0.16900
O1302       O  0.34889423  0.62387292  0.78485629    -0.60000
H1303       H  0.41549344  0.71816899  0.84524052     0.16900
O1304       O  0.38097968  0.77525796  0.81360548    -0.60100
H1305       H  0.36637032  0.77996300  0.83711688     0.43900
H1306       H  0.35523817  0.61843542  0.75826418     0.43900
C1307       C  0.38422352  0.87603378  0.69170400    -0.05200
C1308       C  0.39784250  0.91366071  0.68932377    -0.32600
C1309       C  0.42357226  0.92537862  0.66088946     0.36600
C1310       C  0.43573947  0.89944567  0.63336800    -0.05500
C1311       C  0.42342797  0.86111405  0.63715936    -0.32500
C1312       C  0.39816949  0.84938152  0.66604366     0.36500
H1313       H  0.38723003  0.93460033  0.70891284     0.16900
O1314       O  0.43581619  0.96246118  0.66010556    -0.60000
H1315       H  0.43312375  0.83983328  0.61758583     0.16900
O1316       O  0.38481464  0.81258586  0.66699584    -0.60100
H1317       H  0.40570741  0.79763643  0.67914334     0.43900
H1318       H  0.41296414  0.97746926  0.65194678     0.43900
C1319       C  0.30107798  0.86140118  0.63187138    -0.05200
C1320       C  0.32277835  0.84792450  0.60142890    -0.32600
C1321       C  0.33763946  0.87430316  0.57444504     0.36600
C1322       C  0.33338917  0.91392257  0.58019396    -0.05500
C1323       C  0.32163098  0.92619453  0.61498524    -0.32500
C1324       C  0.29981857  0.90178998  0.63708289     0.36500
H1325       H  0.32490570  0.81764612  0.59661309     0.16900
O1326       O  0.35421453  0.86163394  0.54181930    -0.60000
H1327       H  0.31873522  0.95652152  0.61974652     0.16900
O1328       O  0.27431825  0.91890737  0.66114736    -0.60100
H1329       H  0.25095363  0.92453518  0.64591035     0.43900
H1330       H  0.33561538  0.84335532  0.53091117     0.43900
C1331       C  0.15531487  0.76605611  0.59261154    -0.05200
C1332       C  0.18447217  0.74858883  0.57166953    -0.32600
C1333       C  0.17509916  0.72074968  0.54519423     0.36600
C1334       C  0.13588369  0.70980302  0.53948723    -0.05500
C1335       C  0.10675562  0.72989817  0.55809007    -0.32500
C1336       C  0.11614841  0.75769555  0.58439826     0.36500
H1337       H  0.21465058  0.75486463  0.57729907     0.16900
O1338       O  0.20449300  0.70480012  0.52468557    -0.60000
H1339       H  0.07657862  0.72309922  0.55342869     0.16900
O1340       O  0.08668365  0.77517926  0.60351596    -0.60100
H1341       H  0.08429250  0.80074938  0.59169311     0.43900
H1342       H  0.21868529  0.68813305  0.54254397     0.43900
C1343       C  0.10444523  0.77618519  0.82208374    -0.05200
C1344       C  0.10932826  0.78390571  0.86032447    -0.32600
C1345       C  0.08653687  0.76550450  0.88773508     0.36600
C1346       C  0.05653737  0.74029133  0.87712048    -0.05500
C1347       C  0.05237426  0.73204380  0.83877921    -0.32500
C1348       C  0.07593479  0.74962916  0.81153846     0.36500
H1349       H  0.13198080  0.80320917  0.86915700     0.16900
O1350       O  0.09279307  0.77374535  0.92476872    -0.60000
H1351       H  0.02940023  0.71339034  0.82945399     0.16900
O1352       O  0.07038802  0.74108669  0.77448712    -0.60100
H1353       H  0.05153893  0.76019963  0.76514004     0.43900
H1354       H  0.10142852  0.74957436  0.93661268     0.43900
C1355       C  0.06905053  0.86687801  0.67293785    -0.05200
C1356       C  0.03578430  0.86740936  0.69568426    -0.32600
C1357       C  0.00441422  0.89084129  0.68611615     0.36600
C1358       C  0.00619761  0.91401519  0.65355588    -0.05500
C1359       C  0.03827041  0.91165004  0.62984341    -0.32500
C1360       C  0.06908895  0.88784622  0.63867969     0.36500
H1361       H  0.03471100  0.85100938  0.72159601     0.16900
O1362       O  0.97238343  0.89142841  0.70902453    -0.60000
H1363       H  0.04056991  0.92918182  0.60494350     0.16900
O1364       O  0.09914002  0.88531316  0.61340708    -0.60100
H1365       H  0.11371969  0.90956579  0.61535359     0.43900
H1366       H  0.97822691  0.91074749  0.72824728     0.43900
C1367       C  0.31755314  0.01619648  0.85753606    -0.05200
C1368       C  0.28603721  0.01961916  0.83293272    -0.32600
C1369       C  0.27716746  0.99041159  0.80807725     0.36600
C1370       C  0.30118582  0.95810825  0.80664842    -0.05500
C1371       C  0.33413284  0.95633929  0.82941982    -0.32500
C1372       C  0.34157820  0.98412771  0.85570955     0.36500
H1373       H  0.26727345  0.04425909  0.83425109     0.16900
O1374       O  0.24459196  0.99332912  0.78632494    -0.60000
H1375       H  0.35346414  0.93211346  0.82860557     0.16900
O1376       O  0.37182921  0.97896600  0.87993900    -0.60100
H1377       H  0.36930432  0.95268920  0.89018074     0.43900
H1378       H  0.22308557  0.98369549  0.80242754     0.43900
C1379       C  0.09079223  0.97087278  0.68176617    -0.05200
C1380       C  0.08305967  0.94837440  0.71420059    -0.32600
C1381       C  0.11244445  0.92837716  0.73277744     0.36600
C1382       C  0.15017861  0.92834755  0.71784111    -0.05500
C1383       C  0.15751344  0.94855229  0.68427920    -0.32500
C1384       C  0.12859269  0.96968436  0.66641914     0.36500
H1385       H  0.05421733  0.94713399  0.72619129     0.16900
O1386       O  0.10377115  0.90871561  0.76526912    -0.60000
H1387       H  0.18603373  0.94785739  0.67147239     0.16900
O1388       O  0.13789652  0.98890965  0.63388490    -0.60100
H1389       H  0.15353354  0.01114637  0.64171810     0.43900
H1390       H  0.09236331  0.88425618  0.75721650     0.43900
C1391       C  0.26440601  0.87898380  0.86832389    -0.05200
C1392       C  0.24637177  0.91444880  0.87039026    -0.32600
C1393       C  0.25838137  0.94179603  0.89610890     0.36600
C1394       C  0.28844132  0.93356755  0.92212701    -0.05500
C1395       C  0.30768750  0.89844107  0.91877694    -0.32500
C1396       C  0.29635808  0.87162063  0.89191899     0.36500
H1397       H  0.22332791  0.92169961  0.85102948     0.16900
O1398       O  0.24130667  0.97695039  0.89430492    -0.60000
H1399       H  0.33094562  0.89106717  0.93780710     0.16900
O1400       O  0.31575780  0.83768723  0.89008956    -0.60100
H1401       H  0.33941491  0.84325955  0.87504837     0.43900
H1402       H  0.21323708  0.97265683  0.89886888     0.43900
C1403       C  0.16238163  0.68709641  0.96614112    -0.05200
C1404       C  0.15120747  0.67154904  0.93220797    -0.32600
C1405       C  0.15916550  0.69066454  0.89861782     0.36600
C1406       C  0.17930922  0.72611903  0.89863873    -0.05500
C1407       C  0.18835806  0.74268439  0.93300901    -0.32500
C1408       C  0.17955552  0.72365354  0.96669358     0.36500
H1409       H  0.13835251  0.64344000  0.93139499     0.16900
O1410       O  0.14890512  0.67310933  0.86592075    -0.60000
H1411       H  0.20337477  0.76977724  0.93383072     0.16900
O1412       O  0.19009186  0.73980877  0.00000525    -0.60100
H1413       H  0.17247408  0.76178766  0.00318731     0.43900
H1414       H  0.17045043  0.65537413  0.86036438     0.43900
C1415       C  0.88324778  0.49602493  0.68896759    -0.05200
C1416       C  0.85788684  0.50225965  0.71929787    -0.32600
C1417       C  0.82648636  0.47795529  0.72612486     0.36600
C1418       C  0.81938746  0.44782481  0.70151108    -0.05500
C1419       C  0.84396362  0.44295512  0.67031515    -0.32500
C1420       C  0.87598585  0.46629896  0.66431309     0.36500
H1421       H  0.86245434  0.52613150  0.73770170     0.16900
O1422       O  0.80443362  0.48264313  0.75785292    -0.60000
H1423       H  0.84015329  0.41896477  0.65189904     0.16900
O1424       O  0.90121887  0.45852733  0.63557625    -0.60100
H1425       H  0.88544099  0.45894350  0.61237041     0.43900
H1426       H  0.81860398  0.46898255  0.77807459     0.43900
C1427       C  0.65629277  0.42912436  0.78011988    -0.05200
C1428       C  0.65970597  0.43879907  0.81858319    -0.32600
C1429       C  0.63605053  0.46667520  0.83549012     0.36600
C1430       C  0.60822723  0.48650326  0.81424091    -0.05500
C1431       C  0.60694758  0.47867543  0.77507486    -0.32500
C1432       C  0.62998597  0.45029190  0.75837741     0.36500
H1433       H  0.67985896  0.42348066  0.83637881     0.16900
O1434       O  0.63920477  0.47288591  0.87324081    -0.60000
H1435       H  0.58736443  0.49413904  0.75687573     0.16900
O1436       O  0.62562024  0.44296345  0.72094129    -0.60100
H1437       H  0.64585752  0.45847973  0.70807566     0.43900
H1438       H  0.62153834  0.45403151  0.88531145     0.43900
C1439       C  0.56631473  0.34046992  0.82877564    -0.05200
C1440       C  0.55035880  0.30917182  0.84786282    -0.32600
C1441       C  0.53268252  0.31350370  0.88279453     0.36600
C1442       C  0.53055637  0.35010433  0.89927086    -0.05500
C1443       C  0.54472923  0.38148484  0.87860257    -0.32500
C1444       C  0.56109367  0.37693293  0.84325549     0.36500
H1445       H  0.55459713  0.28071328  0.83722731     0.16900
O1446       O  0.51657895  0.28185230  0.89953065    -0.60000
H1447       H  0.54230464  0.40998902  0.88920041     0.16900
O1448       O  0.57483672  0.40811497  0.82412639    -0.60100
H1449       H  0.55481326  0.41399742  0.80506939     0.43900
H1450       H  0.53787288  0.27012767  0.91422016     0.43900
C1451       C  0.59586331  0.26859360  0.67625783    -0.05200
C1452       C  0.58500790  0.29028355  0.64502982    -0.32600
C1453       C  0.55590926  0.27798171  0.62054684     0.36600
C1454       C  0.53698339  0.24193490  0.62591367    -0.05500
C1455       C  0.54820576  0.22022649  0.65738652    -0.32500
C1456       C  0.57676858  0.23317244  0.68238526     0.36500
H1457       H  0.59913499  0.31734860  0.63939224     0.16900
O1458       O  0.54637492  0.30251280  0.59204000    -0.60000
H1459       H  0.53448215  0.19297777  0.66300682     0.16900
O1460       O  0.58605109  0.21043022  0.71254405    -0.60100
H1461       H  0.56800425  0.21807177  0.73281754     0.43900
H1462       H  0.52745633  0.32040729  0.60310842     0.43900
C1463       C  0.66534140  0.23521993  0.59691771    -0.05200
C1464       C  0.63410767  0.20958426  0.59895035    -0.32600
C1465       C  0.60849755  0.20567860  0.56932046     0.36600
C1466       C  0.61370269  0.22706276  0.53640784    -0.05500
C1467       C  0.64597598  0.25143716  0.53315772    -0.32500
C1468       C  0.67186302  0.25559621  0.56310795     0.36500
H1469       H  0.62818968  0.19321206  0.62428958     0.16900
O1470       O  0.57678910  0.18289573  0.57405311    -0.60000
H1471       H  0.65008489  0.26852175  0.50791938     0.16900
O1472       O  0.70208587  0.28082218  0.55953413    -0.60100
H1473       H  0.72353188  0.26601140  0.54829794     0.43900
H1474       H  0.58709399  0.15704315  0.57929109     0.43900
C1475       C  0.76732466  0.37089579  0.62432300    -0.05200
C1476       C  0.79769198  0.35661222  0.60179999    -0.32600
C1477       C  0.81848689  0.37998232  0.57614877     0.36600
C1478       C  0.81002727  0.41921277  0.57263739    -0.05500
C1479       C  0.78112724  0.43377177  0.59700110    -0.32500
C1480       C  0.75955622  0.41012826  0.62174883     0.36500
H1481       H  0.80546791  0.32682400  0.60403208     0.16900
O1482       O  0.84708815  0.36391038  0.55477622    -0.60000
H1483       H  0.77471834  0.46386818  0.59690122     0.16900
O1484       O  0.73248850  0.42623913  0.64486679    -0.60100
H1485       H  0.70837741  0.42733169  0.62986290     0.43900
H1486       H  0.83346153  0.35228901  0.53330421     0.43900
C1487       C  0.76160114  0.14180135  0.67946159    -0.05200
C1488       C  0.79983773  0.13784802  0.66687221    -0.32600
C1489       C  0.80742363  0.12204830  0.63191749     0.36600
C1490       C  0.77636133  0.10955669  0.60967602    -0.05500
C1491       C  0.73888989  0.10816378  0.62581139    -0.32500
C1492       C  0.73180296  0.12271241  0.66107756     0.36500
H1493       H  0.82311280  0.15141475  0.68184545     0.16900
O1494       O  0.84479046  0.12143059  0.61883858    -0.60000
H1495       H  0.71441668  0.09621387  0.61115685     0.16900
O1496       O  0.69448094  0.12333486  0.67470581    -0.60100
H1497       H  0.68076680  0.14291433  0.65953933     0.43900
H1498       H  0.85787901  0.10115958  0.63362661     0.43900
C1499       C  0.65318641  0.11321113  0.86640940    -0.05200
C1500       C  0.68256230  0.13822874  0.87923298    -0.32600
C1501       C  0.69911697  0.16694479  0.85637409     0.36600
C1502       C  0.68511339  0.17383101  0.81999331    -0.05500
C1503       C  0.65472638  0.15013563  0.80722853    -0.32500
C1504       C  0.63954691  0.11974008  0.82954123     0.36500
H1505       H  0.69352703  0.13575424  0.90742177     0.16900
O1506       O  0.72805213  0.18919134  0.87075747    -0.60000
H1507       H  0.64305879  0.15471171  0.77937345     0.16900
O1508       O  0.61177441  0.09644908  0.81469521    -0.60100
H1509       H  0.62593291  0.07964506  0.79720627     0.43900
H1510       H  0.75245591  0.17555230  0.86495057     0.43900
C1511       C  0.91736904  0.43543813  0.81079236    -0.05200
C1512       C  0.92046474  0.42348430  0.77330085    -0.32600
C1513       C  0.90551305  0.38856647  0.76242054     0.36600
C1514       C  0.88484295  0.36625160  0.78850088    -0.05500
C1515       C  0.88660718  0.37528986  0.82672201    -0.32500
C1516       C  0.90285292  0.40977649  0.83798350     0.36500
H1517       H  0.93406817  0.44134446  0.75203925     0.16900
O1518       O  0.90523449  0.37973404  0.72503712    -0.60000
H1519       H  0.87136734  0.35781747  0.84721705     0.16900
O1520       O  0.90212409  0.41927802  0.87518838    -0.60100
H1521       H  0.92469855  0.40609241  0.88647500     0.43900
H1522       H  0.92995388  0.36614653  0.72064972     0.43900
C1523       C  0.90541035  0.17491753  0.67582922    -0.05200
C1524       C  0.89849374  0.17389837  0.71534599    -0.32600
C1525       C  0.87050145  0.19710172  0.73275803     0.36600
C1526       C  0.84867878  0.22291457  0.71125334    -0.05500
C1527       C  0.85676706  0.22519293  0.67215564    -0.32500
C1528       C  0.88434639  0.20160914  0.65463690     0.36500
H1529       H  0.91484442  0.15492656  0.73336080     0.16900
O1530       O  0.86452446  0.19377402  0.77070974    -0.60000
H1531       H  0.84080194  0.24485382  0.65446330     0.16900
O1532       O  0.89008658  0.20462424  0.61661677    -0.60100
H1533       H  0.86632818  0.19402560  0.60511514     0.43900
H1534       H  0.88115375  0.21365453  0.78192941     0.43900
C1535       C  0.81448662  0.41401174  0.91109434    -0.05200
C1536       C  0.81655868  0.37556164  0.92403398    -0.32600
C1537       C  0.80583064  0.34455920  0.90050392     0.36600
C1538       C  0.79187468  0.35201164  0.86400407    -0.05500
C1539       C  0.79108475  0.39084228  0.85242774    -0.32500
C1540       C  0.80483166  0.42053261  0.87382449     0.36500
H1541       H  0.82366164  0.36972860  0.95307229     0.16900
O1542       O  0.80550085  0.30816174  0.91470182    -0.60000
H1543       H  0.77748125  0.39994159  0.82696272     0.16900
O1544       O  0.80435206  0.45700594  0.85933468    -0.60100
H1545       H  0.77663098  0.46388582  0.85657874     0.43900
H1546       H  0.77980832  0.30511923  0.92701261     0.43900
C1547       C  0.64542587  0.18920907  0.95669758    -0.05200
C1548       C  0.61983455  0.18903286  0.92672527    -0.32600
C1549       C  0.62280297  0.21617534  0.89809373     0.36600
C1550       C  0.65314154  0.24380977  0.89816041    -0.05500
C1551       C  0.67828936  0.24460558  0.92893729    -0.32500
C1552       C  0.67455584  0.21757492  0.95810945     0.36500
H1553       H  0.59832298  0.16677327  0.92435049     0.16900
O1554       O  0.59709821  0.21362235  0.86893387    -0.60000
H1555       H  0.70167297  0.26521905  0.92980498     0.16900
O1556       O  0.69974784  0.21880147  0.98774680    -0.60100
H1557       H  0.72380460  0.20647314  0.97868475     0.43900
H1558       H  0.57225600  0.22355604  0.87875006     0.43900
C1559       C  0.70669458  0.45996498  0.16790614    -0.05200
C1560       C  0.69926909  0.46713768  0.12953498    -0.32600
C1561       C  0.67089164  0.49326486  0.11812500     0.36600
C1562       C  0.64918159  0.51259905  0.14517057    -0.05500
C1563       C  0.66015897  0.50903533  0.18325595    -0.32500
C1564       C  0.68867953  0.48300891  0.19469449     0.36500
H1565       H  0.71323538  0.44997773  0.10835710     0.16900
O1566       O  0.66193348  0.49653471  0.08082030    -0.60000
H1567       H  0.64447463  0.52441554  0.20460490     0.16900
O1568       O  0.69504018  0.47711042  0.23226616    -0.60100
H1569       H  0.71843667  0.49240301  0.23803807     0.43900
H1570       H  0.67652292  0.51919864  0.07169010     0.43900
C1571       C  0.79005339  0.41265878  0.31547839    -0.05200
C1572       C  0.77394309  0.44246633  0.33600123    -0.32600
C1573       C  0.79857015  0.47018389  0.35148670     0.36600
C1574       C  0.83923053  0.46653381  0.34770157    -0.05500
C1575       C  0.85451646  0.43249920  0.33563585    -0.32500
C1576       C  0.83125410  0.40755815  0.31622306     0.36500
H1577       H  0.74282536  0.44637785  0.33682307     0.16900
O1578       O  0.78292367  0.50200500  0.36745654    -0.60000
H1579       H  0.88574006  0.42940956  0.33334903     0.16900
O1580       O  0.84989217  0.38182278  0.29359218    -0.60100
H1581       H  0.86892741  0.36802240  0.30946898     0.43900
H1582       H  0.76986337  0.51603178  0.34682843     0.43900
C1583       C  0.79991418  0.34879247  0.39843870    -0.05200
C1584       C  0.83877444  0.35729502  0.40660015    -0.32600
C1585       C  0.84870654  0.38370098  0.43411153     0.36600
C1586       C  0.81953343  0.40281075  0.45418657    -0.05500
C1587       C  0.78052745  0.39220807  0.44765943    -0.32500
C1588       C  0.77064310  0.36571414  0.42008463     0.36500
H1589       H  0.86186814  0.34418570  0.39065602     0.16900
O1590       O  0.88709706  0.39097170  0.44020584    -0.60000
H1591       H  0.75726577  0.40509812  0.46350672     0.16900
O1592       O  0.73228570  0.35788638  0.41357758    -0.60100
H1593       H  0.72379983  0.37743723  0.39510015     0.43900
H1594       H  0.89591047  0.40603536  0.41801563     0.43900
C1595       C  0.64735031  0.28041831  0.36147036    -0.05200
C1596       C  0.65420863  0.24493824  0.37929433    -0.32600
C1597       C  0.62844558  0.22912857  0.40543578     0.36600
C1598       C  0.59417055  0.24850436  0.41493525    -0.05500
C1599       C  0.58687376  0.28372884  0.39593020    -0.32500
C1600       C  0.61338257  0.29987664  0.37026012     0.36500
H1601       H  0.68005563  0.22876234  0.37297808     0.16900
O1602       O  0.63760974  0.19470709  0.42154544    -0.60000
H1603       H  0.56107461  0.30003844  0.40123540     0.16900
O1604       O  0.60532200  0.33426877  0.35355271    -0.60100
H1605       H  0.61758377  0.35351460  0.36984512     0.43900
H1606       H  0.65736509  0.20046844  0.44083541     0.43900
C1607       C  0.59408511  0.08955793  0.18013071    -0.05200
C1608       C  0.57534633  0.12436472  0.17574090    -0.32600
C1609       C  0.59502399  0.15829651  0.18281189     0.36600
C1610       C  0.63373395  0.15740991  0.19603403    -0.05500
C1611       C  0.65280014  0.12248021  0.19910053    -0.32500
C1612       C  0.63363466  0.08883759  0.18998859     0.36500
H1613       H  0.54522186  0.12524172  0.16728831     0.16900
O1614       O  0.57588703  0.19210493  0.17733249    -0.60000
H1615       H  0.68268420  0.12126882  0.20827531     0.16900
O1616       O  0.65370515  0.05538983  0.19169976    -0.60100
H1617       H  0.66387307  0.05163351  0.16593716     0.43900
H1618       H  0.55575216  0.19306147  0.19719643     0.43900
C1619       C  0.77552671  0.17703687  0.29995061    -0.05200
C1620       C  0.76253698  0.18378694  0.33705298    -0.32600
C1621       C  0.77799820  0.16553622  0.36775545     0.36600
C1622       C  0.80140429  0.13372651  0.36265019    -0.05500
C1623       C  0.81457915  0.12547264  0.32579658    -0.32500
C1624       C  0.80253986  0.14775317  0.29452092     0.36500
H1625       H  0.74136422  0.20537943  0.34345448     0.16900
O1626       O  0.76748422  0.17753177  0.40289674    -0.60000
H1627       H  0.83286967  0.10100288  0.32104243     0.16900
O1628       O  0.81605106  0.13978064  0.25929390    -0.60100
H1629       H  0.79757087  0.12081354  0.24923821     0.43900
H1630       H  0.78425673  0.19972101  0.40811402     0.43900
C1631       C  0.79382231  0.37817192  0.09066045    -0.05200
C1632       C  0.77783100  0.36607808  0.05683731    -0.32600
C1633       C  0.77794003  0.39020122  0.02560415     0.36600
C1634       C  0.79485938  0.42665877  0.02786835    -0.05500
C1635       C  0.81272485  0.43799423  0.06071584    -0.32500
C1636       C  0.81308650  0.41400917  0.09192998     0.36500
H1637       H  0.76285973  0.33900439  0.05520624     0.16900
O1638       O  0.76044734  0.37834324  0.99328521    -0.60000
H1639       H  0.82501404  0.46618810  0.06302675     0.16900
O1640       O  0.82865809  0.42773078  0.12456320    -0.60100
H1641       H  0.85597852  0.43447897  0.11868878     0.43900
H1642       H  0.73238055  0.38307849  0.99707090     0.43900
C1643       C  0.69586500  0.22695402  0.12369338    -0.05200
C1644       C  0.69864223  0.18747764  0.12949734    -0.32600
C1645       C  0.67799418  0.16188057  0.10696750     0.36600
C1646       C  0.65519774  0.17541378  0.07680364    -0.05500
C1647       C  0.65173479  0.21505686  0.07165280    -0.32500
C1648       C  0.67137295  0.24059817  0.09492548     0.36500
H1649       H  0.71576709  0.17635415  0.15253679     0.16900
O1650       O  0.67998740  0.12352705  0.11458457    -0.60000
H1651       H  0.63518230  0.22649506  0.04837855     0.16900
O1652       O  0.66775043  0.27896357  0.08825255    -0.60100
H1653       H  0.64273944  0.28614742  0.09998078     0.43900
H1654       H  0.70778336  0.11665456  0.11265046     0.43900
C1655       C  0.05301173  0.35842456  0.19256307    -0.05200
C1656       C  0.03633528  0.39453099  0.18916011    -0.32600
C1657       C  0.01580875  0.40525860  0.15719392     0.36600
C1658       C  0.01058969  0.37931882  0.12765251    -0.05500
C1659       C  0.02552594  0.34208029  0.13235031    -0.32500
C1660       C  0.04645222  0.33162285  0.16449212     0.36500
H1661       H  0.04174632  0.41574033  0.21033165     0.16900
O1662       O  0.00130270  0.44145337  0.15539184    -0.60000
H1663       H  0.02137253  0.32071257  0.11119079     0.16900
O1664       O  0.06322286  0.29633939  0.16658302    -0.60100
H1665       H  0.04373323  0.27987682  0.17936895     0.43900
H1666       H  0.02414396  0.45827213  0.15140166     0.43900
C1667       C  0.89939184  0.36587280  0.11539251    -0.05200
C1668       C  0.87791925  0.33281354  0.10601879    -0.32600
C1669       C  0.85894985  0.31027927  0.13359230     0.36600
C1670       C  0.86007888  0.32084562  0.17155780    -0.05500
C1671       C  0.88200265  0.35309649  0.18099178    -0.32500
C1672       C  0.90087357  0.37558734  0.15378890     0.36500
H1673       H  0.87492145  0.32449086  0.07708626     0.16900
O1674       O  0.83639414  0.28026539  0.12256821    -0.60000
H1675       H  0.88270416  0.36252713  0.20982742     0.16900
O1676       O  0.91882280  0.40837952  0.16510315    -0.60100
H1677       H  0.93919933  0.40022558  0.18298598     0.43900
H1678       H  0.85448560  0.25853726  0.12034745     0.43900
C1679       C  0.04890215  0.16558106  0.32095122    -0.05200
C1680       C  0.04426953  0.20472888  0.32775318    -0.32600
C1681       C  0.06582515  0.23239318  0.30800789     0.36600
C1682       C  0.09300158  0.22184034  0.28027928    -0.05500
C1683       C  0.09674754  0.18312277  0.27199535    -0.32500
C1684       C  0.07562927  0.15512864  0.29222353     0.36500
H1685       H  0.02381659  0.21429024  0.34872163     0.16900
O1686       O  0.06085574  0.26992963  0.31695684    -0.60000
H1687       H  0.11819222  0.17424278  0.25162818     0.16900
O1688       O  0.08314695  0.11770549  0.28475749    -0.60100
H1689       H  0.10345549  0.10995764  0.30284443     0.43900
H1690       H  0.04319713  0.28030600  0.29750764     0.43900
C1691       C  0.92980644  0.16696181  0.33767995    -0.05200
C1692       C  0.90281649  0.17856804  0.36455450    -0.32600
C1693       C  0.87598043  0.20700834  0.35622028     0.36600
C1694       C  0.87438980  0.22320480  0.31979591    -0.05500
C1695       C  0.90155798  0.21196581  0.29289829    -0.32500
C1696       C  0.92924501  0.18427547  0.30161543     0.36500
H1697       H  0.90215717  0.16579972  0.39218195     0.16900
O1698       O  0.85171291  0.21905525  0.38419456    -0.60000
H1699       H  0.90106740  0.22426537  0.26487869     0.16900
O1700       O  0.95626039  0.17498129  0.27492361    -0.60100
H1701       H  0.94276299  0.15729756  0.25785350     0.43900
H1702       H  0.86420508  0.24217991  0.39434699     0.43900
C1703       C  0.36120413  0.83964843  0.31452738    -0.05200
C1704       C  0.35954701  0.83321794  0.35343285    -0.32600
C1705       C  0.38417753  0.85262455  0.37855210     0.36600
C1706       C  0.41376011  0.87793698  0.36524818    -0.05500
C1707       C  0.41577378  0.88385652  0.32602834    -0.32500
C1708       C  0.38980338  0.86560806  0.30109831     0.36500
H1709       H  0.33712614  0.81475947  0.36491523     0.16900
O1710       O  0.37692268  0.84858160  0.41628177    -0.60000
H1711       H  0.43785890  0.90258940  0.31441857     0.16900
O1712       O  0.39281103  0.87343957  0.26342367    -0.60100
H1713       H  0.40836094  0.85230464  0.25303675     0.43900
H1714       H  0.38073509  0.82118784  0.42224399     0.43900
C1715       C  0.36985915  0.72913324  0.17789275    -0.05200
C1716       C  0.36275690  0.70494259  0.14738219    -0.32600
C1717       C  0.38763747  0.67563767  0.13854982     0.36600
C1718       C  0.42046489  0.66952529  0.16036030    -0.05500
C1719       C  0.42715327  0.69252734  0.19189995    -0.32500
C1720       C  0.40201882  0.72223156  0.20080805     0.36500
H1721       H  0.33750954  0.70835312  0.12970506     0.16900
O1722       O  0.37849711  0.65188863  0.10972262    -0.60000
H1723       H  0.45260490  0.68828318  0.20898219     0.16900
O1724       O  0.40960941  0.74453568  0.23120639    -0.60100
H1725       H  0.39809762  0.73067902  0.25297477     0.43900
H1726       H  0.37250638  0.66836935  0.08769292     0.43900
C1727       C  0.19620622  0.73984024  0.37711120    -0.05200
C1728       C  0.16604753  0.75500632  0.39910067    -0.32600
C1729       C  0.14333497  0.73204903  0.42314546     0.36600
C1730       C  0.15022294  0.69244488  0.42619693    -0.05500
C1731       C  0.18060432  0.67736824  0.40396091    -0.32500
C1732       C  0.20377039  0.70063708  0.38040577     0.36500
H1733       H  0.15902064  0.78497300  0.39667889     0.16900
O1734       O  0.11417139  0.74893401  0.44313399    -0.60000
H1735       H  0.18645218  0.64717476  0.40424304     0.16900
O1736       O  0.23175509  0.68411395  0.35862435    -0.60100
H1737       H  0.25592732  0.68590238  0.37345401     0.43900
H1738       H  0.09079264  0.74663828  0.42720202     0.43900
C1739       C  0.29175696  0.88509944  0.39122339    -0.05200
C1740       C  0.28220032  0.86756505  0.42545830    -0.32600
C1741       C  0.28931711  0.88626933  0.45875954     0.36600
C1742       C  0.30583822  0.92298603  0.45771189    -0.05500
C1743       C  0.31967034  0.93843779  0.42414416    -0.32500
C1744       C  0.31365857  0.91925419  0.39084119     0.36500
H1745       H  0.26693932  0.84056896  0.42642156     0.16900
O1746       O  0.27825212  0.86943800  0.49209393    -0.60000
H1747       H  0.33317626  0.96624756  0.42322674     0.16900
O1748       O  0.32817409  0.93471839  0.35810143    -0.60100
H1749       H  0.31381204  0.95875979  0.35403874     0.43900
H1750       H  0.24969405  0.87228062  0.49338888     0.43900
C1751       C  0.03864742  0.92135297  0.31731984    -0.05200
C1752       C  0.06572909  0.90417356  0.34118600    -0.32600
C1753       C  0.09722517  0.88306682  0.32689234     0.36600
C1754       C  0.10306769  0.87873941  0.28749415    -0.05500
C1755       C  0.07535658  0.89503840  0.26359081    -0.32500
C1756       C  0.04329141  0.91530725  0.27796328     0.36500
H1757       H  0.06313545  0.90791230  0.37120529     0.16900
O1758       O  0.12328723  0.86827884  0.35204062    -0.60000
H1759       H  0.07809594  0.89151168  0.23354945     0.16900
O1760       O  0.01640689  0.92878163  0.25291309    -0.60100
H1761       H  0.99512310  0.90973673  0.25344278     0.43900
H1762       H  0.11201273  0.84358949  0.36036435     0.43900
C1763       C  0.07305737  0.73935502  0.20700089    -0.05200
C1764       C  0.06516409  0.76652182  0.17930201    -0.32600
C1765       C  0.04855517  0.75580384  0.14521905     0.36600
C1766       C  0.03957240  0.71675360  0.13834799    -0.05500
C1767       C  0.04395741  0.69062139  0.16797327    -0.32500
C1768       C  0.06040541  0.70158966  0.20191648     0.36500
H1769       H  0.07527132  0.79553501  0.18250625     0.16900
O1770       O  0.04299799  0.78378035  0.11863573    -0.60000
H1771       H  0.03555567  0.66115164  0.16452314     0.16900
O1772       O  0.06651046  0.67458809  0.22931760    -0.60100
H1773       H  0.08814256  0.65880354  0.21985505     0.43900
H1774       H  0.02088754  0.79908445  0.12778936     0.43900
C1775       C  0.14920494  0.75119177  0.14028365    -0.05200
C1776       C  0.14746051  0.71186982  0.14955842    -0.32600
C1777       C  0.13672991  0.68443479  0.12409083     0.36600
C1778       C  0.13101353  0.69490842  0.08676613    -0.05500
C1779       C  0.12834280  0.73412314  0.07743025    -0.32500
C1780       C  0.13734803  0.76239501  0.10415219     0.36500
H1781       H  0.15895175  0.70097041  0.17553125     0.16900
O1782       O  0.13961814  0.64674001  0.13425909    -0.60000
H1783       H  0.12357294  0.74268257  0.04856558     0.16900
O1784       O  0.13841385  0.79998801  0.09354933    -0.60100
H1785       H  0.16392807  0.80365074  0.08108985     0.43900
H1786       H  0.11310331  0.63917192  0.14222574     0.43900
C1787       C  0.28111477  0.85253135  0.09432258    -0.05200
C1788       C  0.31725464  0.85897013  0.07722279    -0.32600
C1789       C  0.32283092  0.88877254  0.05131870     0.36600
C1790       C  0.29200561  0.91361354  0.04254545    -0.05500
C1791       C  0.25492667  0.90478772  0.05795285    -0.32500
C1792       C  0.24946931  0.87474658  0.08351117     0.36500
H1793       H  0.34185458  0.84153566  0.08508259     0.16900
O1794       O  0.35855522  0.89296227  0.03489810    -0.60000
H1795       H  0.22941066  0.92084074  0.05060045     0.16900
O1796       O  0.21342436  0.86830455  0.09884265    -0.60100
H1797       H  0.20935046  0.88905317  0.11696360     0.43900
H1798       H  0.37631429  0.90023495  0.05544554     0.43900
C1799       C  0.28489532  0.11985327  0.13301572    -0.05200
C1800       C  0.30920392  0.14973671  0.14400150    -0.32600
C1801       C  0.29465885  0.18118078  0.16417895     0.36600
C1802       C  0.25443964  0.18461786  0.17280864    -0.05500
C1803       C  0.23025836  0.15443332  0.16252645    -0.32500
C1804       C  0.24500079  0.12225914  0.14371082     0.36500
H1805       H  0.33961216  0.14914585  0.13635145     0.16900
O1806       O  0.32021991  0.20905051  0.17444648    -0.60000
H1807       H  0.19981119  0.15516706  0.17005363     0.16900
O1808       O  0.22017962  0.09250090  0.13711618    -0.60100
H1809       H  0.20120482  0.10221341  0.11852271     0.43900
H1810       H  0.33178698  0.19978162  0.19824097     0.43900
C1811       C  0.29066977  0.99443505  0.13338846    -0.05200
C1812       C  0.25135451  0.98960728  0.14424730    -0.32600
C1813       C  0.23799723  0.95640745  0.16273059     0.36600
C1814       C  0.26405030  0.92712783  0.17187169    -0.05500
C1815       C  0.30346789  0.93232709  0.16225737    -0.32500
C1816       C  0.31675284  0.96524957  0.14326241     0.36500
H1817       H  0.23041622  0.01157764  0.13769484     0.16900
O1818       O  0.19973226  0.95363393  0.17304263    -0.60000
H1819       H  0.32433101  0.91040128  0.16922924     0.16900
O1820       O  0.35503078  0.96752735  0.13336703    -0.60100
H1821       H  0.36846378  0.97670362  0.15609132     0.43900
H1822       H  0.18550907  0.94851341  0.14951128     0.43900
C1823       C  0.17987047  0.09774243  0.39236397    -0.05200
C1824       C  0.14949673  0.12275319  0.38583379    -0.32600
C1825       C  0.15097610  0.14857079  0.35600150     0.36600
C1826       C  0.18189972  0.14780393  0.32941046    -0.05500
C1827       C  0.21082995  0.12044004  0.33417946    -0.32500
C1828       C  0.21090226  0.09664434  0.36608053     0.36500
H1829       H  0.12534743  0.12405731  0.40522562     0.16900
O1830       O  0.12354118  0.17667822  0.35505514    -0.60000
H1831       H  0.23575158  0.12031610  0.31556374     0.16900
O1832       O  0.24208271  0.07328571  0.37155362    -0.60100
H1833       H  0.26159845  0.08891732  0.38472248     0.43900
H1834       H  0.12936550  0.19349899  0.37646054     0.43900
C1835       C  0.18053963  0.99057440  0.38291334    -0.05200
C1836       C  0.21767011  0.99400043  0.36624627    -0.32600
C1837       C  0.22391102  0.98455050  0.32891747     0.36600
C1838       C  0.19501943  0.96496458  0.30979456    -0.05500
C1839       C  0.15686108  0.96645862  0.32361736    -0.32500
C1840       C  0.14958320  0.97848399  0.36028227     0.36500
H1841       H  0.24226435  0.00439282  0.38177556     0.16900
O1842       O  0.26046581  0.98771639  0.31393424    -0.60000
H1843       H  0.13379943  0.95276083  0.30830387     0.16900
O1844       O  0.11278241  0.97542828  0.37466372    -0.60100
H1845       H  0.09745254  0.99520519  0.36140868     0.43900
H1846       H  0.26259762  0.01453436  0.30512488     0.43900
C1847       C  0.30303278  0.46319816  0.86141845    -0.05200
C1848       C  0.30948323  0.47402027  0.82331331    -0.32600
C1849       C  0.29894980  0.44956135  0.79321416     0.36600
C1850       C  0.28020612  0.41456759  0.80107180    -0.05500
C1851       C  0.27551078  0.40450527  0.83950334    -0.32500
C1852       C  0.28903140  0.42656665  0.86875872     0.36500
H1853       H  0.31992389  0.50243202  0.81678178     0.16900
O1854       O  0.30392163  0.46167985  0.75683408    -0.60000
H1855       H  0.25887781  0.37990445  0.84808685     0.16900
O1856       O  0.28448592  0.41373093  0.90516733    -0.60100
H1857       H  0.25617356  0.41073751  0.90937536     0.43900
H1858       H  0.28010915  0.47616835  0.75069326     0.43900
C1859       C  0.10214896  0.52313923  0.67545766    -0.05200
C1860       C  0.08689952  0.48947160  0.66206072    -0.32600
C1861       C  0.10538878  0.45532384  0.66967186     0.36600
C1862       C  0.13876177  0.45446017  0.69307362    -0.05500
C1863       C  0.15544355  0.48876327  0.70432531    -0.32500
C1864       C  0.13758075  0.52316113  0.69516830     0.36500
H1865       H  0.05993395  0.48940915  0.64660202     0.16900
O1866       O  0.08898667  0.42284517  0.65575229    -0.60000
H1867       H  0.18138741  0.48893449  0.72134636     0.16900
O1868       O  0.15438645  0.55665640  0.70617422    -0.60100
H1869       H  0.14783653  0.55906690  0.73316168     0.43900
H1870       H  0.10113755  0.41943144  0.63078771     0.43900
C1871       C  0.34831063  0.26633240  0.67966645    -0.05200
C1872       C  0.35219101  0.22685843  0.67255907    -0.32600
C1873       C  0.38371279  0.21193559  0.65197035     0.36600
C1874       C  0.41317291  0.23608060  0.63818973    -0.05500
C1875       C  0.41083619  0.27518736  0.64791869    -0.32500
C1876       C  0.37893005  0.29023005  0.66792087     0.36500
H1877       H  0.32974895  0.20727640  0.68189539     0.16900
O1878       O  0.38399436  0.17402395  0.64348872    -0.60000
H1879       H  0.43327311  0.29474898  0.63849853     0.16900
O1880       O  0.37788608  0.32840602  0.67527147    -0.60100
H1881       H  0.38851956  0.33083839  0.70095115     0.43900
H1882       H  0.39564825  0.16122649  0.66565971     0.43900
C1883       C  0.41355176  0.35340057  0.89883838    -0.05200
C1884       C  0.37645753  0.34270400  0.90945859    -0.32600
C1885       C  0.34991853  0.33117236  0.88281832     0.36600
C1886       C  0.36041469  0.33015503  0.84399903    -0.05500
C1887       C  0.39730920  0.34211889  0.83304177    -0.32500
C1888       C  0.42390148  0.35412535  0.86019471     0.36500
H1889       H  0.36818983  0.34244002  0.93885997     0.16900
O1890       O  0.31321386  0.32166287  0.89504530    -0.60000
H1891       H  0.40530024  0.34278012  0.80361300     0.16900
O1892       O  0.45980304  0.36645383  0.84866077    -0.60100
H1893       H  0.47234373  0.34410288  0.83709873     0.43900
H1894       H  0.31635403  0.30165313  0.91465468     0.43900
C1895       C  0.25106103  0.17438212  0.80907287    -0.05200
C1896       C  0.23176571  0.15856516  0.83994291    -0.32600
C1897       C  0.25140504  0.13578837  0.86636301     0.36600
C1898       C  0.29260713  0.12987967  0.86375506    -0.05500
C1899       C  0.31125315  0.14451050  0.83173038    -0.32500
C1900       C  0.29111948  0.16558391  0.80441966     0.36500
H1901       H  0.20120348  0.16426286  0.84406264     0.16900
O1902       O  0.22911174  0.11959050  0.89414824    -0.60000
H1903       H  0.34197981  0.13959306  0.82771643     0.16900
O1904       O  0.31181255  0.17907426  0.77407607    -0.60100
H1905       H  0.30710372  0.16047267  0.75390073     0.43900
H1906       H  0.21987519  0.09515645  0.88374277     0.43900
C1907       C  0.10512857  0.09009296  0.66241419    -0.05200
C1908       C  0.10147877  0.12189564  0.63915746    -0.32600
C1909       C  0.12833242  0.15137391  0.64091839     0.36600
C1910       C  0.15844808  0.15014953  0.66796452    -0.05500
C1911       C  0.16354431  0.11688440  0.68943175    -0.32500
C1912       C  0.13725098  0.08679814  0.68657578     0.36500
H1913       H  0.07672990  0.12494025  0.62085588     0.16900
O1914       O  0.12319474  0.18219150  0.61750785    -0.60000
H1915       H  0.18688994  0.11472838  0.70956899     0.16900
O1916       O  0.14229876  0.05477820  0.70843827    -0.60100
H1917       H  0.13232027  0.06148863  0.73363192     0.43900
H1918       H  0.13877240  0.17659545  0.59481077     0.43900
C1919       C  0.08768378  0.22540472  0.70260456    -0.05200
C1920       C  0.06804501  0.23327171  0.66877972    -0.32600
C1921       C  0.03908573  0.20871087  0.65506326     0.36600
C1922       C  0.02911165  0.17489688  0.67482642    -0.05500
C1923       C  0.04937716  0.16712037  0.70849564    -0.32500
C1924       C  0.07813392  0.19157627  0.72214145     0.36500
H1925       H  0.07513018  0.25872603  0.65269606     0.16900
O1926       O  0.02119455  0.21806479  0.62198544    -0.60000
H1927       H  0.04303281  0.14218222  0.72527044     0.16900
O1928       O  0.09678232  0.18177963  0.75475376    -0.60100
H1929       H  0.11978338  0.16702432  0.74676906     0.43900
H1930       H  0.00003262  0.23566830  0.62899363     0.43900
C1931       C  0.05255966  0.37463361  0.77715920    -0.05200
C1932       C  0.04839729  0.38075560  0.81569375    -0.32600
C1933       C  0.03286494  0.41468109  0.82870453     0.36600
C1934       C  0.01964779  0.44258330  0.80301413    -0.05500
C1935       C  0.02012769  0.43424886  0.76442612    -0.32500
C1936       C  0.03559316  0.40017475  0.75165464     0.36500
H1937       H  0.06129505  0.36113349  0.83562431     0.16900
O1938       O  0.03125559  0.42044294  0.86666127    -0.60000
H1939       H  0.00834077  0.45381721  0.74381035     0.16900
O1940       O  0.03884630  0.39446048  0.71379706    -0.60100
H1941       H  0.01304113  0.38508708  0.70593046     0.43900
H1942       H  0.05394497  0.43675571  0.87224249     0.43900
C1943       C  0.31143479  0.21796646  0.05059973    -0.05200
C1944       C  0.27153603  0.22689519  0.05153048    -0.32600
C1945       C  0.25825133  0.25751336  0.07208618     0.36600
C1946       C  0.28515842  0.27963896  0.09121653    -0.05500
C1947       C  0.32503697  0.27527924  0.08429351    -0.32500
C1948       C  0.33834837  0.24431587  0.06401719     0.36500
H1949       H  0.25022977  0.20838499  0.03908815     0.16900
O1950       O  0.21913739  0.26235153  0.07743379    -0.60000
H1951       H  0.34590555  0.29292576  0.09873587     0.16900
O1952       O  0.37740309  0.23789399  0.06118015    -0.60100
H1953       H  0.38565775  0.25167161  0.03801713     0.43900
H1954       H  0.21199090  0.24482461  0.09840623     0.43900
C1955       C  0.30220037  0.18059557  0.94828246    -0.05200
C1956       C  0.32885065  0.19732243  0.92365295    -0.32600
C1957       C  0.31725638  0.22348155  0.89667127     0.36600
C1958       C  0.27773035  0.23352670  0.89312426    -0.05500
C1959       C  0.25048100  0.21703073  0.91736428    -0.32500
C1960       C  0.26232041  0.19084742  0.94516448     0.36500
H1961       H  0.35933080  0.19077331  0.92560863     0.16900
O1962       O  0.34525427  0.23995786  0.87419691    -0.60000
H1963       H  0.21999528  0.22360202  0.91418627     0.16900
O1964       O  0.23463407  0.17526934  0.96852456    -0.60100
H1965       H  0.22188552  0.19695154  0.98108364     0.43900
H1966       H  0.35282732  0.22008980  0.85606219     0.43900
C1967       C  0.11097245  0.38932825  0.05910383    -0.05200
C1968       C  0.12239728  0.41052865  0.08993762    -0.32600
C1969       C  0.13537684  0.39273460  0.12293132     0.36600
C1970       C  0.13689280  0.35217376  0.12619036    -0.05500
C1971       C  0.12030915  0.33103164  0.09735266    -0.32500
C1972       C  0.10749285  0.34930241  0.06401822     0.36500
H1973       H  0.12619069  0.44104541  0.08681413     0.16900
O1974       O  0.15051597  0.41562086  0.15022573    -0.60000
H1975       H  0.12016356  0.30024937  0.09919109     0.16900
O1976       O  0.09554280  0.32743085  0.03472275    -0.60100
H1977       H  0.11829160  0.31168071  0.02800396     0.43900
H1978       H  0.12836216  0.43042848  0.16008579     0.43900
C1979       C  0.11053387  0.38493293  0.92573981    -0.05200
C1980       C  0.12497880  0.40222408  0.89331901    -0.32600
C1981       C  0.13825706  0.38097333  0.86287403     0.36600
C1982       C  0.13471038  0.34017868  0.86217310    -0.05500
C1983       C  0.11558702  0.32295341  0.89284078    -0.32500
C1984       C  0.10454363  0.34477699  0.92472874     0.36500
H1985       H  0.13163891  0.43241399  0.89368252     0.16900
O1986       O  0.15926209  0.40058056  0.83604803    -0.60000
H1987       H  0.11256701  0.29228163  0.89386508     0.16900
O1988       O  0.09127278  0.32609392  0.95617981    -0.60100
H1989       H  0.11247615  0.30858130  0.96360391     0.43900
H1990       H  0.14228546  0.42130494  0.82658952     0.43900
C1991       C  0.56511514  0.41112500  0.14351205    -0.05200
C1992       C  0.56077031  0.41410914  0.18275201    -0.32600
C1993       C  0.59096160  0.40269049  0.20679255     0.36600
C1994       C  0.62497822  0.38778242  0.19105541    -0.05500
C1995       C  0.63026741  0.39057827  0.15177962    -0.32500
C1996       C  0.60166757  0.40456013  0.12840968     0.36500
H1997       H  0.53239146  0.41948373  0.19467695     0.16900
O1998       O  0.58470581  0.40095622  0.24477872    -0.60000
H1999       H  0.65434341  0.37713084  0.13797931     0.16900
O2000       O  0.60669533  0.40236632  0.09028171    -0.60100
H2001       H  0.61057462  0.42903142  0.08164211     0.43900
H2002       H  0.57350827  0.37536333  0.24967623     0.43900
C2003       C  0.43467359  0.38650380  0.13687825    -0.05200
C2004       C  0.43374651  0.38104850  0.17600591    -0.32600
C2005       C  0.39892365  0.37253188  0.19430160     0.36600
C2006       C  0.36483870  0.37033697  0.17329533    -0.05500
C2007       C  0.36552148  0.37981913  0.13470232    -0.32500
C2008       C  0.40037805  0.38709354  0.11631334     0.36500
H2009       H  0.46050077  0.38049431  0.19184058     0.16900
O2010       O  0.39881242  0.36428614  0.23199424    -0.60000
H2011       H  0.33942067  0.37832184  0.11795289     0.16900
O2012       O  0.40092113  0.39230731  0.07809050    -0.60100
H2013       H  0.40252527  0.36637355  0.06755009     0.43900
H2014       H  0.39836772  0.38934781  0.24445528     0.43900
C2015       C  0.50914395  0.22632742  0.33295590    -0.05200
C2016       C  0.51514640  0.26565296  0.32594481    -0.32600
C2017       C  0.54093729  0.27817692  0.29802875     0.36600
C2018       C  0.56062733  0.25129348  0.27666183    -0.05500
C2019       C  0.54994837  0.21268109  0.27969760    -0.32500
C2020       C  0.52459950  0.20005447  0.30780261     0.36500
H2021       H  0.50177224  0.28678255  0.34362935     0.16900
O2022       O  0.55029439  0.31602583  0.29517676    -0.60000
H2023       H  0.56505707  0.19156605  0.26329950     0.16900
O2024       O  0.51780855  0.16181788  0.31224313    -0.60100
H2025       H  0.54139132  0.15152957  0.32449382     0.43900
H2026       H  0.52840853  0.32788755  0.28147355     0.43900
C2027       C  0.39752305  0.23742525  0.36318504    -0.05200
C2028       C  0.37747717  0.21592849  0.33667401    -0.32600
C2029       C  0.34951456  0.23230632  0.31287636     0.36600
C2030       C  0.33927901  0.27140945  0.31559444    -0.05500
C2031       C  0.35882248  0.29309094  0.34221015    -0.32500
C2032       C  0.38820809  0.27715156  0.36487688     0.36500
H2033       H  0.38392573  0.18594056  0.33386426     0.16900
O2034       O  0.33164634  0.20910475  0.28754506    -0.60000
H2035       H  0.35215528  0.32305091  0.34478033     0.16900
O2036       O  0.40835446  0.30171896  0.38707472    -0.60100
H2037       H  0.42997844  0.31133539  0.37112403     0.43900
H2038       H  0.35000380  0.20743862  0.26614723     0.43900
C2039       C  0.33261462  0.48899609  0.18258782    -0.05200
C2040       C  0.34224046  0.46768134  0.21548932    -0.32600
C2041       C  0.31579407  0.44315195  0.23382912     0.36600
C2042       C  0.27836760  0.43775028  0.21945641    -0.05500
C2043       C  0.26832809  0.45875449  0.18672568    -0.32500
C2044       C  0.29465366  0.48418931  0.16873978     0.36500
H2045       H  0.37052440  0.46946947  0.22801578     0.16900
O2046       O  0.32792073  0.42294334  0.26475189    -0.60000
H2047       H  0.23997957  0.45485399  0.17437301     0.16900
O2048       O  0.28317987  0.50320240  0.13689364    -0.60100
H2049       H  0.26938099  0.52606698  0.14591566     0.43900
H2050       H  0.32057021  0.43870487  0.28652271     0.43900
C2051       C  0.34039526  0.61042912  0.18481732    -0.05200
C2052       C  0.35089623  0.62770222  0.21942790    -0.32600
C2053       C  0.32927088  0.65732667  0.23594068     0.36600
C2054       C  0.29606001  0.67190992  0.21824190    -0.05500
C2055       C  0.28471405  0.65425886  0.18433457    -0.32500
C2056       C  0.30612496  0.62415310  0.16795871     0.36500
H2057       H  0.37626330  0.61884873  0.23464857     0.16900
O2058       O  0.34188312  0.67252084  0.26897693    -0.60000
H2059       H  0.25916741  0.66430871  0.16975439     0.16900
O2060       O  0.29325550  0.60869079  0.13515530    -0.60100
H2061       H  0.30198459  0.62657088  0.11509033     0.43900
H2062       H  0.32821695  0.65779983  0.28896547     0.43900
C2063       C  0.04748577  0.50224684  0.30084429    -0.05200
C2064       C  0.08688237  0.51001939  0.30848667    -0.32600
C2065       C  0.11514879  0.48255585  0.30340268     0.36600
C2066       C  0.10371063  0.44635293  0.29266422    -0.05500
C2067       C  0.06389681  0.43776932  0.28802792    -0.32500
C2068       C  0.03590939  0.46573515  0.29132766     0.36500
H2069       H  0.09631640  0.53810487  0.31642912     0.16900
O2070       O  0.15354518  0.49168584  0.30760555    -0.60000
H2071       H  0.05447228  0.40961012  0.27990847     0.16900
O2072       O  0.99767831  0.45746534  0.28456727    -0.60100
H2073       H  0.99517146  0.45743195  0.25687297     0.43900
H2074       H  0.15718540  0.49526240  0.33492374     0.43900
C2075       C  0.07011305  0.61648654  0.29814108    -0.05200
C2076       C  0.07176307  0.64449630  0.32519902    -0.32600
C2077       C  0.10596142  0.66449003  0.33102714     0.36600
C2078       C  0.13901784  0.65754681  0.30819373    -0.05500
C2079       C  0.13869285  0.62619147  0.28444955    -0.32500
C2080       C  0.10436809  0.60600535  0.27884684     0.36500
H2081       H  0.04603439  0.65221026  0.34080389     0.16900
O2082       O  0.10551706  0.69364168  0.35629572    -0.60000
H2083       H  0.16354666  0.62002587  0.26687036     0.16900
O2084       O  0.10439054  0.57662272  0.25382294    -0.60100
H2085       H  0.10389253  0.58883410  0.22861599     0.43900
H2086       H  0.08733875  0.71297791  0.34608881     0.43900
C2087       C  0.14949030  0.42729252  0.42924427    -0.05200
C2088       C  0.17433950  0.43919535  0.39962887    -0.32600
C2089       C  0.18753827  0.41400490  0.37209685     0.36600
C2090       C  0.17370830  0.37625576  0.37114479    -0.05500
C2091       C  0.14573292  0.36519127  0.39823475    -0.32500
C2092       C  0.13441315  0.38987388  0.42751157     0.36500
H2093       H  0.18563013  0.46794491  0.39873904     0.16900
O2094       O  0.21523492  0.42644903  0.34703153    -0.60000
H2095       H  0.13384687  0.33664186  0.39776977     0.16900
O2096       O  0.10964318  0.37655711  0.45484871    -0.60100
H2097       H  0.12579503  0.36025479  0.47139998     0.43900
H2098       H  0.20078743  0.43666864  0.32529328     0.43900
C2099       C  0.15476180  0.42814322  0.56077735    -0.05200
C2100       C  0.14633931  0.38895712  0.56086576    -0.32600
C2101       C  0.16003683  0.36424908  0.58957927     0.36600
C2102       C  0.18406338  0.37783936  0.61880300    -0.05500
C2103       C  0.19141672  0.41715404  0.61947825    -0.32500
C2104       C  0.17646416  0.44214860  0.59160761     0.36500
H2105       H  0.13012213  0.37703528  0.53788821     0.16900
O2106       O  0.15096104  0.32630236  0.58787786    -0.60000
H2107       H  0.20788470  0.42889047  0.64243687     0.16900
O2108       O  0.18239193  0.48060608  0.59521292    -0.60100
H2109       H  0.21091269  0.48437057  0.59523340     0.43900
H2110       H  0.12476145  0.32399309  0.59927564     0.43900
C2111       C  0.33469347  0.22181183  0.44151533    -0.05200
C2112       C  0.32638334  0.19423250  0.41529685    -0.32600
C2113       C  0.29479925  0.19872689  0.39197567     0.36600
C2114       C  0.27241703  0.23246704  0.39330252    -0.05500
C2115       C  0.27784154  0.25789005  0.42243880    -0.32500
C2116       C  0.30845767  0.25233996  0.44718728     0.36500
H2117       H  0.34518066  0.16996239  0.41168820     0.16900
O2118       O  0.28751232  0.17093999  0.36631337    -0.60000
H2119       H  0.25997806  0.28306772  0.42476174     0.16900
O2120       O  0.31273160  0.27692107  0.47654809    -0.60100
H2121       H  0.32161877  0.30134589  0.46513877     0.43900
H2122       H  0.26544125  0.15647447  0.37717922     0.43900
C2123       C  0.34393553  0.22573219  0.55270471    -0.05200
C2124       C  0.34222536  0.26044618  0.57230559    -0.32600
C2125       C  0.30898261  0.27124129  0.59128570     0.36600
C2126       C  0.27783173  0.24608335  0.59375348    -0.05500
C2127       C  0.27894308  0.21134634  0.57567004    -0.32500
C2128       C  0.31118126  0.20107152  0.55492529     0.36500
H2129       H  0.36601801  0.28025694  0.57275263     0.16900
O2130       O  0.30844206  0.30510725  0.61002869    -0.60000
H2131       H  0.25528315  0.19117525  0.57917775     0.16900
O2132       O  0.30998860  0.16640659  0.53793612    -0.60100
H2133       H  0.29314463  0.16996928  0.51567732     0.43900
H2134       H  0.29285745  0.32255294  0.59410200     0.43900
loop_ 
_geom_bond_atom_site_label_1 
_geom_bond_atom_site_label_2 
_geom_bond_distance 
_geom_bond_site_symmetry_2 
_ccdc_geom_bond_type 
N1            C5   1.341       .  A
N1            C2   1.350       .  A
N1          C911   1.445       .  S
C2            C3   1.394       .  A
C2         C2123   1.493       .  S
C3            C4   1.354       .  A
C3            H6   1.075       .  S
C4            C5   1.372       .  A
C4            H7   1.082       .  S
C5         C2111   1.460       .  S
N8           C12   1.376       .  A
N8            C9   1.383       .  A
N8          C809   1.474       .  S
C9           C10   1.383       .  A
C9         C2099   1.523       .  S
C10          C11   1.360       .  A
C10          H13   1.081       .  S
C11          C12   1.386       .  A
C11          H14   1.081       .  S
C12        C2087   1.521       .  S
N15          C19   1.345       .  A
N15          C16   1.339       .  A
N15         C832   1.441       .  S
C16          C17   1.385       .  A
C16        C2063   1.459       .  S
C17          C18   1.376       .  A
C17          H20   1.083       .  S
C18          C19   1.384       .  A
C18          H21   1.083       .  S
C19        C2075   1.468       .  S
N22          C26   1.382       .  A
N22          C23   1.379       .  A
N22         C866   1.494       .  S
C23          C24   1.383       .  A
C23        C2039   1.533       .  S
C24          C25   1.358       .  A
C24          H27   1.079       .  S
C25          C26   1.388       .  A
C25          H28   1.072       .  S
C26        C2051   1.545       .  S
N29          C33   1.371       .  A
N29          C30   1.356       .  A
N29         C934   1.472       .  S
C30          C31   1.371       .  A
C30        C2015   1.483       .  S
C31          C32   1.352       .  A
C31          H34   1.072       .  S
C32          C33   1.391       .  A
C32          H35   1.068       .  S
C33        C2027   1.526       .  S
N36          C40   1.345       .  A
N36          C37   1.349       .  A
N36         C854   1.439       .  S
C37          C38   1.380       .  A
C37        C2003   1.453       .  S
C38          C39   1.364       .  A
C38          H41   1.083       .  S
C39          C40   1.383       .  A
C39          H42   1.083       .  S
C40        C1991   1.462       .  S
N43          C47   1.381       .  A
N43          C44   1.375   1_556  A
N43         C558   1.484       .  S
C44          C45   1.378       .  A
C44        C1967   1.491       .  S
C45          C46   1.353   1_554  A
C45          H48   1.083       .  S
C46          C47   1.382       .  A
C46          H49   1.084       .  S
C47        C1979   1.505       .  S
N50          C54   1.346       .  A
N50          C51   1.355   1_554  A
N50         C591   1.450       .  S
C51          C52   1.387   1_556  A
C51        C1955   1.487       .  S
C52          C53   1.362       .  A
C52          H55   1.079   1_554  S
C53          C54   1.374       .  A
C53          H56   1.078       .  S
C54        C1943   1.471       .  S
O57          C84   1.269       .  A
O57         Mn83   2.084       .  S
C58        C2126   1.427       .  S
C58          O91   1.264       .  A
C58          O88   1.263       .  A
O59         Mn66   2.186       .  S
O59         Mn77   2.058       .  S
O59         Mn81   2.164       .  S
O59         Mn83   2.120       .  S
O60          C70   1.263       .  A
O60         Mn94   2.063       .  S
O61          C84   1.264       .  A
O61         Mn77   2.058       .  S
O62          C89   1.272       .  A
O62         Mn81   2.266       .  S
O63         Mn94   1.960       .  S
O63         Mn83   1.970       .  S
O63          C79   1.226       .  S
C64        C1895   1.502       .  S
C64          O67   1.267       .  A
C64          O90   1.205       .  S
O65         Mn85   2.114       .  S
O65         Mn66   2.174       .  S
O65         Mn99   2.050       .  S
O65         Mn81   2.172       .  S
Mn66         O95   2.194       .  S
Mn66         O71   2.247       .  S
Mn66         O98   2.170       .  S
Mn66         O72   2.184       .  S
O67         Mn81   2.177       .  S
O68          C70   1.273       .  A
O68         Mn75   2.094       .  S
C69        C1871   1.517       .  S
C69          O95   1.273       .  A
C69          O82   1.213       .  S
C70        C1910   1.478       .  S
O71          C96   1.270       .  A
O72         Mn75   2.098       .  S
O72         Mn94   2.121       .  S
O72         Mn81   2.198       .  S
O73         Mn77   1.951       .  S
O73         Mn99   1.948       .  S
O73          C96   1.195       .  S
C74        C1958   1.468       .  S
C74         O100   1.258       .  A
C74          O76   1.279       .  A
Mn75         O88   2.049       .  S
Mn75         O90   1.921       .  S
Mn75         O82   1.971       .  S
O76         Mn99   2.125       .  S
Mn77         O93   2.097       .  S
Mn77         O87   1.979       .  S
O78          C80   1.260       .  A
O78         Mn83   2.040       .  S
C79        C1919   1.501       .  S
C79          O97   1.263       .  A
C80        C1862   1.472       .  S
C80          O93   1.276       .  A
Mn81         O97   2.112       .  S
O82         Mn85   1.961       .  S
Mn83        O101   1.936       .  S
C84        C1931   1.448       .  S
Mn85         O92   2.130       .  S
Mn85        O100   2.027       .  S
Mn85         O90   1.919       .  S
C86        C1886   1.473       .  S
C86          O92   1.278       .  A
C86         O102   1.246       .  A
O87         Mn99   1.980       .  S
O87          C89   1.210       .  A
C89        C1982   1.528       .  S
O91         Mn94   2.058       .  S
Mn94        O101   1.950       .  S
C96        C1850   1.521       .  S
O98         C103   1.274       .  A
Mn99        O102   2.005       .  S
O101        C103   1.225       .  S
C103       C2102   1.517       .  S
N104        C108   1.350       .  A
N104        C105   1.347       .  A
N104        C513   1.447       .  S
C105        C106   1.392       .  A
C105       C1835   1.489   1_545  S
C106        C107   1.376       .  A
C106        H109   1.083   1_545  S
C107        C108   1.383       .  A
C107        H110   1.082       .  S
C108       C1823   1.482       .  S
N111        C115   1.378       .  A
N111        C112   1.377       .  A
N111        C603   1.481       .  S
C112        C113   1.377       .  A
C112       C1811   1.512   1_545  S
C113        C114   1.355       .  A
C113        H116   1.078       .  S
C114        C115   1.387       .  A
C114        H117   1.081       .  S
C115       C1799   1.527       .  S
O118        C145   1.274       .  A
O118       Mn144   2.099       .  S
C119       C2078   1.469       .  S
C119        O152   1.277       .  A
C119        O149   1.264       .  A
O120       Mn127   2.149       .  S
O120       Mn138   2.100       .  S
O120       Mn142   2.179       .  S
O120       Mn144   2.069       .  S
O121        C131   1.261       .  A
O121       Mn155   2.088       .  S
O122        C145   1.269       .  A
O122       Mn138   2.089       .  S
O123        C150   1.271       .  A
O123       Mn142   2.153       .  S
O124       Mn155   1.978       .  S
O124       Mn144   1.976       .  S
O124        C140   1.218       .  A
C125       C1754   1.519       .  S
C125        O128   1.268       .  A
C125        O151   1.211       .  S
O126       Mn146   2.093       .  S
O126       Mn127   2.165       .  S
O126       Mn160   2.132       .  S
O126       Mn142   2.168       .  S
Mn127       O156   2.146       .  S
Mn127       O132   2.153       .  S
Mn127       O159   2.188       .  S
Mn127       O133   2.156       .  S
O128       Mn142   2.191       .  S
O129        C131   1.272       .  A
O129       Mn136   2.112       .  S
C130       C1727   1.496       .  S
C130        O156   1.265       .  A
C130        O143   1.217       .  S
C131       C1763   1.468       .  S
O132        C157   1.266       .  A
O133       Mn136   2.093       .  S
O133       Mn155   2.086       .  S
O133       Mn142   2.185       .  S
O134       Mn138   1.988       .  S
O134       Mn160   1.957       .  S
O134        C157   1.223       .  S
C135       C1838   1.453       .  S
C135        O161   1.265       .  A
C135        O137   1.271       .  A
Mn136       O149   2.044       .  S
Mn136       O151   1.935       .  S
Mn136       O143   1.941       .  S
O137       Mn160   2.093       .  S
Mn138       O154   2.112       .  S
Mn138       O148   1.965       .  S
O139        C141   1.260       .  A
O139       Mn144   2.035       .  S
C140       C1775   1.497       .  S
C140        O158   1.266       .  A
C141       C1715   1.469       .  S
C141        O154   1.276       .  A
Mn142       O158   2.227       .  S
O143       Mn146   1.962       .  S
Mn144       O162   1.990       .  S
C145       C1787   1.467       .  S
Mn146       O153   2.071       .  S
Mn146       O161   2.045       .  S
Mn146       O151   1.931       .  S
C147       C1739   1.461       .  S
C147        O153   1.271       .  A
C147        O163   1.263       .  A
O148       Mn160   1.951       .  S
O148        C150   1.221       .  S
C150       C1814   1.498       .  S
O152       Mn155   2.088       .  S
Mn155       O162   2.003       .  S
C157       C1703   1.521       .  S
O159        C164   1.271       .  A
Mn160       O163   2.053       .  S
O162        C164   1.215       .  S
C164       C2054   1.526       .  S
N165        C169   1.367   1_655  A
N165        C166   1.358       .  A
N165        C536   1.465       .  S
C166        C167   1.376       .  A
C166       C1691   1.484       .  S
C167        C168   1.369   1_655  A
C167        H170   1.083       .  S
C168        C169   1.394       .  A
C168        H171   1.078       .  S
C169       C1679   1.516       .  S
N172        C176   1.363       .  A
N172        C173   1.355       .  A
N172        C546   1.464       .  S
C173        C174   1.383       .  A
C173       C1658   1.499   1_655  S
C174        C175   1.373       .  A
C174        H177   1.082   1_655  S
C175        C176   1.394       .  A
C175        H178   1.081       .  S
C176       C1667   1.521       .  S
O179        C206   1.268       .  A
O179       Mn205   2.100       .  S
C180       C2018   1.462       .  S
C180        O213   1.267       .  A
C180        O210   1.278       .  A
O181       Mn188   2.186       .  S
O181       Mn199   2.073       .  S
O181       Mn203   2.173       .  S
O181       Mn205   2.053       .  S
O182        C192   1.274       .  A
O182       Mn216   2.093       .  S
O183        C206   1.269       .  A
O183       Mn199   2.076       .  S
O184        C211   1.260       .  A
O184       Mn203   2.140       .  S
O185       Mn216   1.924       .  S
O185       Mn205   1.935       .  S
O185        C201   1.187       .  S
C186       C1643   1.489       .  S
C186        O189   1.259       .  A
C186        O212   1.219       .  S
O187       Mn207   2.087       .  S
O187       Mn188   2.179       .  S
O187       Mn221   2.085       .  S
O187       Mn203   2.182       .  S
Mn188       O217   2.157       .  S
Mn188       O193   2.181       .  S
Mn188       O220   2.161       .  S
Mn188       O194   2.181       .  S
O189       Mn203   2.118       .  S
O190        C192   1.266       .  A
O190       Mn197   2.069       .  S
C191       C1994   1.480       .  S
C191        O217   1.262       .  A
C191        O204   1.210       .  S
C192       C1610   1.474       .  S
O193        C218   1.262       .  A
O194       Mn197   2.101       .  S
O194       Mn216   2.055       .  S
O194       Mn203   2.187       .  S
O195       Mn199   1.982       .  S
O195       Mn221   1.981       .  S
O195        C218   1.220       .  A
C196       C1631   1.468       .  S
C196        O222   1.273       .  A
C196        O198   1.260       .  A
Mn197       O210   2.112       .  S
Mn197       O212   1.957       .  S
Mn197       O204   1.943       .  S
O198       Mn221   2.042       .  S
Mn199       O215   2.118       .  S
Mn199       O209   1.986       .  S
O200        C202   1.270       .  A
O200       Mn205   2.091       .  S
C201       C1619   1.494       .  S
C201        O219   1.257       .  A
C202       C1583   1.485       .  S
C202        O215   1.272       .  A
Mn203       O219   2.224       .  S
O204       Mn207   1.933       .  S
Mn205       O223   2.009       .  S
C206       C1694   1.475       .  S
Mn207       O214   2.096       .  S
Mn207       O222   2.079       .  S
Mn207       O212   1.981       .  S
C208       C1559   1.484       .  S
C208        O214   1.266       .  A
C208        O224   1.275       .  A
O209       Mn221   1.959       .  S
O209        C211   1.215       .  S
C211       C1670   1.494       .  S
O213       Mn216   2.052       .  S
Mn216       O223   2.010       .  S
C218       C1571   1.484       .  S
O220        C225   1.261       .  A
Mn221       O224   2.116       .  S
O223        C225   1.228       .  A
C225       C1595   1.484       .  S
N226        C230   1.364       .  A
N226        C227   1.357   1_554  A
N226        C592   1.460       .  S
C227        C228   1.375       .  A
C227       C1547   1.477       .  S
C228        C229   1.366   1_556  A
C228        H231   1.082       .  S
C229        C230   1.392       .  A
C229        H232   1.081       .  S
C230       C1646   1.500       .  S
N233        C237   1.357       .  A
N233        C234   1.350       .  A
N233        C569   1.455       .  S
C234        C235   1.376       .  A
C234       C1634   1.457   1_556  S
C235        C236   1.363       .  A
C235        H238   1.083       .  S
C236        C237   1.391       .  A
C236        H239   1.083       .  S
C237       C1535   1.497       .  S
N240        C244   1.366       .  A
N240        C241   1.375       .  A
N240        C537   1.477       .  S
C241        C242   1.383       .  A
C241       C1523   1.525       .  S
C242        C243   1.364       .  A
C242        H245   1.083       .  S
C243        C244   1.388       .  A
C243        H246   1.074       .  S
C244       C1922   1.518   1_655  S
N247        C251   1.344       .  A
N247        C248   1.344       .  A
N247        C581   1.433       .  S
C248        C249   1.387       .  A
C248       C1934   1.482   1_655  S
C249        C250   1.380       .  A
C249        H252   1.081       .  S
C250        C251   1.383       .  A
C250        H253   1.079       .  S
C251       C1511   1.477       .  S
O254        C281   1.263       .  A
O254       Mn280   2.077       .  S
C255       C1439   1.450       .  S
C255        O288   1.265       .  A
C255        O285   1.273       .  A
O256       Mn263   2.155       .  S
O256       Mn274   2.106       .  S
O256       Mn278   2.171       .  S
O256       Mn280   2.063       .  S
O257        C267   1.280       .  A
O257       Mn291   2.132       .  S
O258        C281   1.265       .  A
O258       Mn274   2.078       .  S
O259        C286   1.271       .  A
O259       Mn278   2.188       .  S
O260       Mn291   1.958       .  S
O260       Mn280   1.968       .  S
O260        C276   1.209       .  A
C261       C1502   1.512       .  S
C261        O264   1.271       .  A
C261        O287   1.224       .  S
O262       Mn282   2.112       .  S
O262       Mn263   2.165       .  S
O262       Mn296   2.112       .  S
O262       Mn278   2.195       .  S
Mn263       O292   2.144       .  S
Mn263       O268   2.162       .  S
Mn263       O295   2.185       .  S
Mn263       O269   2.172       .  S
O264       Mn278   2.151       .  S
O265        C267   1.259       .  A
O265       Mn272   2.040       .  S
C266       C1451   1.502       .  S
C266        O292   1.265       .  A
C266        O279   1.216       .  S
C267       C1550   1.489       .  S
O268        C293   1.267       .  A
O269       Mn272   2.114       .  S
O269       Mn291   2.079       .  S
O269       Mn278   2.203       .  S
O270       Mn274   1.936       .  S
O270       Mn296   1.967       .  S
O270        C293   1.216       .  S
C271       C1487   1.442       .  S
C271        O297   1.263       .  A
C271        O273   1.267       .  A
Mn272       O285   2.086       .  S
Mn272       O287   1.952       .  S
Mn272       O279   1.955       .  S
O273       Mn296   2.059       .  S
Mn274       O290   2.043       .  S
Mn274       O284   1.927       .  S
O275        C277   1.274       .  A
O275       Mn280   2.084       .  S
C276       C1538   1.522       .  S
C276        O294   1.269       .  A
C277       C1418   1.463       .  S
C277        O290   1.265       .  A
Mn278       O294   2.281       .  S
O279       Mn282   1.942       .  S
Mn280       O298   1.991       .  S
C281       C1514   1.449       .  S
Mn282       O289   2.084       .  S
Mn282       O297   2.062       .  S
Mn282       O287   1.956       .  S
C283       C1463   1.480       .  S
C283        O289   1.271       .  A
C283        O299   1.269       .  A
O284       Mn296   1.918       .  S
O284        C286   1.210       .  S
C286       C1526   1.511       .  S
O288       Mn291   2.043       .  S
Mn291       O298   1.976       .  S
C293       C1475   1.509       .  S
O295        C300   1.267       .  A
Mn296       O299   2.082       .  S
O298        C300   1.209       .  S
C300       C1427   1.516       .  S
N301        C305   1.354       .  A
N301        C302   1.355       .  A
N301        C557   1.452       .  S
C302        C303   1.380       .  A
C302       C1403   1.469   1_554  S
C303        C304   1.362       .  A
C303        H306   1.083       .  S
C304        C305   1.385       .  A
C304        H307   1.083       .  S
C305       C1778   1.481       .  S
N308        C312   1.367       .  A
N308        C309   1.365   1_556  A
N308        C626   1.465       .  S
C309        C310   1.380       .  A
C309       C1790   1.507       .  S
C310        C311   1.354   1_554  A
C310        H313   1.078       .  S
C311        C312   1.390       .  A
C311        H314   1.076       .  S
C312       C1394   1.509       .  S
N315        C319   1.351       .  A
N315        C316   1.363       .  A
N315        C512   1.458       .  S
C316        C317   1.397       .  A
C316       C1379   1.502   1_545  S
C317        C318   1.357       .  A
C317        H320   1.081       .  S
C318        C319   1.368       .  A
C318        H321   1.081       .  S
C319       C1907   1.464       .  S
N322        C326   1.368       .  A
N322        C323   1.353       .  A
N322        C614   1.466       .  S
C323        C324   1.369       .  A
C323       C1367   1.467       .  S
C324        C325   1.360       .  A
C324        H327   1.069       .  S
C325        C326   1.384       .  A
C325        H328   1.071       .  S
C326       C1898   1.525       .  S
O329        C356   1.272       .  A
O329       Mn355   2.106       .  S
C330       C1406   1.480       .  S
C330        O363   1.282       .  A
C330        O360   1.264       .  A
O331       Mn338   2.141       .  S
O331       Mn349   2.073       .  S
O331       Mn353   2.183       .  S
O331       Mn355   2.092       .  S
O332        C342   1.256       .  A
O332       Mn366   2.025       .  S
O333        C356   1.267       .  A
O333       Mn349   2.108       .  S
O334        C361   1.265       .  A
O334       Mn353   2.221       .  S
O335       Mn366   1.946       .  S
O335       Mn355   1.955       .  S
O335        C351   1.219       .  S
C336       C1271   1.489       .  S
C336        O339   1.265       .  A
C336        O362   1.202       .  S
O337       Mn357   2.078       .  S
O337       Mn338   2.162       .  S
O337       Mn371   2.076       .  S
O337       Mn353   2.186       .  S
Mn338       O367   2.106       .  S
Mn338       O343   2.107       .  S
Mn338       O370   2.096       .  S
Mn338       O344   2.138       .  S
O339       Mn353   2.193       .  S
O340        C342   1.283       .  A
O340       Mn347   2.140       .  S
C341       C1343   1.482       .  S
C341        O367   1.251       .  A
C341        O354   1.215       .  S
C342       C1286   1.494       .  S
O343        C368   1.252       .  A
O344       Mn347   2.101       .  S
O344       Mn366   2.112       .  S
O344       Mn353   2.196       .  S
O345       Mn349   1.986       .  S
O345       Mn371   1.960       .  S
O345        C368   1.212       .  S
C346       C1331   1.481       .  S
C346        O372   1.263       .  A
C346        O348   1.270       .  A
Mn347       O360   2.049       .  S
Mn347       O362   1.940       .  S
Mn347       O354   1.964       .  S
O348       Mn371   2.106       .  S
Mn349       O365   2.056       .  S
Mn349       O359   1.979       .  S
O350        C352   1.274       .  A
O350       Mn355   2.088       .  S
C351       C1295   1.485       .  S
C351        O369   1.262       .  A
C352       C1370   1.468       .  S
C352        O365   1.267       .  A
Mn353       O369   2.128       .  S
O354       Mn357   1.979       .  S
Mn355       O373   1.964       .  S
C356       C1307   1.477       .  S
Mn357       O364   2.101       .  S
Mn357       O372   2.105       .  S
Mn357       O362   1.946       .  S
C358       C1355   1.480       .  S
C358        O364   1.277       .  A
C358        O374   1.267       .  A
O359       Mn371   1.974       .  S
O359        C361   1.215       .  A
C361       C1319   1.497       .  S
O363       Mn366   2.115       .  S
Mn366       O373   1.976       .  S
C368       C1382   1.477       .  S
O370        C375   1.256       .  A
Mn371       O374   2.064       .  S
O373        C375   1.219       .  S
C375       C1391   1.487       .  S
N376        C380   1.355   1_655  A
N376        C377   1.349       .  A
N376        C547   1.455       .  S
C377        C378   1.382       .  A
C377       C1259   1.472       .  S
C378        C379   1.371   1_655  A
C378        H381   1.078       .  S
C379        C380   1.385       .  A
C379        H382   1.082       .  S
C380       C1766   1.499       .  S
N383        C387   1.375   1_655  A
N383        C384   1.378       .  A
N383        C501   1.481       .  S
C384        C385   1.387       .  A
C384       C1247   1.529       .  S
C385        C386   1.367       .  A
C385        H388   1.081       .  S
C386        C387   1.384   1_655  A
C386        H389   1.083   1_655  S
C387       C1751   1.523       .  S
N390        C394   1.351       .  A
N390        C391   1.346       .  A
N390        C524   1.441       .  S
C391        C392   1.370       .  A
C391       C1235   1.446       .  S
C392        C393   1.356       .  A
C392        H395   1.075       .  S
C393        C394   1.396       .  A
C393        H396   1.080       .  S
C394       C1622   1.485       .  S
N397        C401   1.349       .  A
N397        C398   1.365   1_545  A
N397        C602   1.460       .  S
C398        C399   1.395       .  A
C398       C1223   1.516       .  S
C399        C400   1.374   1_565  A
C399        H402   1.083       .  S
C400        C401   1.375       .  A
C400        H403   1.082       .  S
C401       C1607   1.470       .  S
O404        C431   1.260       .  A
O404       Mn430   2.030       .  S
C405       C1262   1.484       .  S
C405        O438   1.268       .  A
C405        O435   1.279       .  A
O406       Mn413   2.166       .  S
O406       Mn424   2.096       .  S
O406       Mn428   2.180       .  S
O406       Mn430   2.111       .  S
O407        C417   1.276       .  A
O407       Mn441   2.122       .  S
O408        C431   1.270       .  A
O408       Mn424   2.089       .  S
O409        C436   1.275       .  A
O409       Mn428   2.235       .  S
O410       Mn441   1.942       .  S
O410       Mn430   1.934       .  S
O410        C426   1.209       .  S
C411       C1187   1.511       .  S
C411        O414   1.273       .  A
C411        O437   1.226       .  S
O412       Mn432   2.126       .  S
O412       Mn413   2.187       .  S
O412       Mn446   2.082       .  S
O412       Mn428   2.166       .  S
Mn413       O442   2.159       .  S
Mn413       O418   2.164       .  S
Mn413       O445   2.176       .  S
Mn413       O419   2.138       .  S
O414       Mn428   2.162       .  S
O415        C417   1.254       .  A
O415       Mn422   2.031       .  S
C416       C1250   1.515       .  S
C416        O442   1.268       .  A
C416        O429   1.220       .  S
C417       C1127   1.466       .  S
O418        C443   1.258       .  A
O419       Mn422   2.105       .  S
O419       Mn441   2.089       .  S
O419       Mn428   2.183       .  S
O420       Mn424   1.945       .  S
O420       Mn446   1.964       .  S
O420        C443   1.210       .  S
C421       C1175   1.455       .  S
C421        O447   1.271       .  A
C421        O423   1.271       .  A
Mn422       O435   2.120       .  S
Mn422       O437   1.989       .  S
Mn422       O429   1.965       .  S
O423       Mn446   2.072       .  S
Mn424       O440   2.003       .  S
Mn424       O434   1.981       .  S
O425        C427   1.278       .  A
O425       Mn430   2.104       .  S
C426       C1139   1.521       .  S
C426        O444   1.270       .  A
C427       C1199   1.468       .  S
C427        O440   1.253       .  A
Mn428       O444   2.198       .  S
O429       Mn432   1.947       .  S
Mn430       O448   1.971       .  S
C431       C1151   1.445       .  S
Mn432       O439   2.043       .  S
Mn432       O447   2.090       .  S
Mn432       O437   1.949       .  S
C433       C1238   1.461       .  S
C433        O439   1.259       .  A
C433        O449   1.268       .  A
O434       Mn446   1.983       .  S
O434        C436   1.226       .  A
C436       C1163   1.522       .  S
O438       Mn441   2.061       .  S
Mn441       O448   1.974       .  S
C443       C1226   1.489       .  S
O445        C450   1.272       .  A
Mn446       O449   2.070       .  S
O448        C450   1.216       .  S
C450       C1211   1.516       .  S
N451        C455   1.350       .  A
N451        C452   1.338   1_556  A
N451        C627   1.440       .  S
C452        C453   1.376       .  A
C452       C1202   1.457       .  S
C453        C454   1.374   1_554  A
C453        H456   1.082       .  S
C454        C455   1.392       .  A
C454        H457   1.083       .  S
C455       C1115   1.472       .  S
N458        C462   1.378   1_556  A
N458        C459   1.376       .  A
N458        C568   1.491       .  S
C459        C460   1.379       .  A
C459       C1103   1.528       .  S
C460        C461   1.360   1_556  A
C460        H463   1.076       .  S
C461        C462   1.388       .  A
C461        H464   1.075       .  S
C462       C1214   1.537       .  S
N465        C469   1.346       .  A
N465        C466   1.344       .  A
N465        C523   1.437       .  S
C466        C467   1.387       .  A
C466       C1490   1.480       .  S
C467        C468   1.372       .  A
C467        H470   1.083       .  S
C468        C469   1.383       .  A
C468        H471   1.080       .  S
C469       C1094   1.473       .  S
N472        C476   1.385       .  A
N472        C473   1.382       .  A
N472        C613   1.485       .  S
C473        C474   1.385       .  A
C473       C1499   1.530       .  S
C474        C475   1.357       .  A
C474        H477   1.080       .  S
C475        C476   1.384       .  A
C475        H478   1.081       .  S
C476       C1079   1.531   1_545  S
N479        C483   1.370       .  A
N479        C480   1.352       .  A
N479        C502   1.464       .  S
C480        C481   1.371       .  A
C480       C1358   1.473   1_655  S
C481        C482   1.363       .  A
C481        H484   1.073       .  S
C482        C483   1.393       .  A
C482        H485   1.079       .  S
C483       C1067   1.523       .  S
N486        C490   1.362   1_655  A
N486        C487   1.357       .  A
N486        C582   1.455       .  S
C487        C488   1.373       .  A
C487       C1055   1.478       .  S
C488        C489   1.365   1_655  A
C488        H491   1.082       .  S
C489        C490   1.393       .  A
C489        H492   1.081       .  S
C490       C1346   1.496       .  S
N493        N494   1.329       .  A
N493        N499   1.318       .  A
N493       Mn522   2.243   1_565  S
N494        C501   1.360       .  A
N495        N497   1.313       .  A
N495        N496   1.320       .  A
N495       Mn511   2.238   1_655  S
N496        C502   1.359       .  A
N497        N498   1.331       .  A
N497       Mn522   2.217   1_565  S
N498        C502   1.360       .  A
N499        N500   1.338   1_655  A
N499       Mn511   2.298   1_655  S
N500        C501   1.372   1_455  A
N503        N509   1.322       .  A
N503        N504   1.317       .  A
N503       Mn533   2.220       .  S
N504        C512   1.351       .  A
N505        N506   1.325       .  A
N505        N507   1.318       .  A
N505       Mn511   2.232   1_545  S
N506        C513   1.359       .  A
N507        N508   1.319       .  A
N507       Mn533   2.202       .  S
N508        C513   1.351       .  A
N509        N510   1.335   1_545  A
N509       Mn511   2.275   1_545  S
N510        C512   1.364   1_565  A
Mn511      Cl535   2.564   1_465  S
N514        N515   1.318       .  A
N514        N520   1.315       .  A
N514       Mn522   2.205       .  S
N515        C523   1.352       .  A
N516        N518   1.315       .  A
N516        N517   1.320       .  A
N516       Mn534   2.206       .  S
N517        C524   1.356       .  A
N518        N519   1.316       .  A
N518       Mn522   2.203       .  S
N519        C524   1.358       .  A
N520        N521   1.317       .  A
N520       Mn534   2.182       .  S
N521        C523   1.353       .  A
Mn522      Cl535   2.543       .  S
N525        N526   1.337       .  A
N525        N531   1.314   1_455  A
N525       Mn533   2.260       .  S
N526        C536   1.368   1_455  A
N527        N528   1.331       .  A
N527        N529   1.314       .  A
N527       Mn534   2.222       .  S
N528        C537   1.360       .  A
N529        N530   1.332   1_655  A
N529       Mn533   2.280   1_655  S
N530        C537   1.368   1_455  A
N531        N532   1.317       .  A
N531       Mn534   2.205       .  S
N532        C536   1.351       .  A
Mn533      Cl535   2.539   1_455  S
Mn534      Cl535   2.571       .  S
N538        N539   1.337       .  A
N538        N544   1.319       .  A
N538       Mn567   2.269       .  S
N539        C546   1.364       .  A
N540        N542   1.320       .  A
N540        N541   1.327   1_655  A
N540       Mn556   2.226   1_655  S
N541        C547   1.356   1_455  A
N542        N543   1.322       .  A
N542       Mn567   2.239       .  S
N543        C547   1.356       .  A
N544        N545   1.318       .  A
N544       Mn556   2.205   1_655  S
N545        C546   1.352       .  A
N548        N554   1.313   1_556  A
N548        N549   1.325       .  A
N548       Mn578   2.220       .  S
N549        C557   1.358   1_556  A
N550        N551   1.333       .  A
N550        N552   1.318   1_554  A
N550       Mn556   2.266       .  S
N551        C558   1.364   1_554  A
N552        N553   1.339       .  A
N552       Mn578   2.298       .  S
N553        C558   1.370       .  A
N554        N555   1.325       .  A
N554       Mn556   2.220       .  S
N555        C557   1.358       .  A
Mn556      Cl580   2.552   1_454  S
N559        N560   1.339       .  A
N559        N565   1.316   1_554  A
N559       Mn567   2.308       .  S
N560        C568   1.371   1_554  A
N561        N563   1.313   1_556  A
N561        N562   1.327       .  A
N561       Mn579   2.210       .  S
N562        C569   1.357       .  A
N563        N564   1.322       .  A
N563       Mn567   2.230       .  S
N564        C569   1.360   1_554  A
N565        N566   1.329       .  A
N565       Mn579   2.244       .  S
N566        C568   1.360       .  A
Mn567      Cl580   2.563   1_554  S
N570        N571   1.319   1_655  A
N570        N576   1.314       .  A
N570       Mn578   2.193   1_655  S
N571        C581   1.356   1_455  A
N572        N573   1.316       .  A
N572        N574   1.320   1_655  A
N572       Mn579   2.212       .  S
N573        C582   1.348       .  A
N574        N575   1.335       .  A
N574       Mn578   2.268       .  S
N575        C582   1.365   1_455  A
N576        N577   1.313       .  A
N576       Mn579   2.171       .  S
N577        C581   1.350       .  A
Mn578      Cl580   2.568   1_455  S
Mn579      Cl580   2.551       .  S
N583        N584   1.326       .  A
N583        N589   1.319   1_556  A
N583       Mn612   2.235       .  S
N584        C591   1.357   1_556  A
N585        N587   1.319   1_554  A
N585        N586   1.332       .  A
N585       Mn601   2.252       .  S
N586        C592   1.362       .  A
N587        N588   1.322       .  A
N587       Mn612   2.236       .  S
N588        C592   1.356   1_556  A
N589        N590   1.320       .  A
N589       Mn601   2.208       .  S
N590        C591   1.354       .  A
N593        N599   1.315       .  A
N593        N594   1.329       .  A
N593       Mn623   2.230       .  S
N594        C602   1.361       .  A
N595        N596   1.341       .  A
N595        N597   1.315       .  A
N595       Mn601   2.289       .  S
N596        C603   1.372       .  A
N597        N598   1.323       .  A
N597       Mn623   2.229       .  S
N598        C603   1.357       .  A
N599        N600   1.323       .  A
N599       Mn601   2.234       .  S
N600        C602   1.362       .  A
Mn601      Cl625   2.570       .  S
N604        N605   1.336       .  A
N604        N610   1.321       .  A
N604       Mn612   2.299       .  S
N605        C613   1.369       .  A
N606        N608   1.312       .  A
N606        N607   1.313       .  A
N606       Mn624   2.213       .  S
N607        C614   1.353       .  A
N608        N609   1.337       .  A
N608       Mn612   2.240       .  S
N609        C614   1.366       .  A
N610        N611   1.335       .  A
N610       Mn624   2.275       .  S
N611        C613   1.366       .  A
Mn612      Cl625   2.558   1_556  S
N615        N616   1.324       .  A
N615        N621   1.321   1_554  A
N615       Mn623   2.222   1_565  S
N616        C626   1.355   1_554  A
N617        N618   1.319       .  A
N617        N619   1.316   1_556  A
N617       Mn624   2.202   1_565  S
N618        C627   1.352       .  A
N619        N620   1.319       .  A
N619       Mn623   2.204   1_565  S
N620        C627   1.356   1_554  A
N621        N622   1.332       .  A
N621       Mn624   2.281   1_565  S
N622        C626   1.362       .  A
Mn623      Cl625   2.558       .  S
Mn624      Cl625   2.568   1_556  S
O628        C655   1.269       .  A
O628       Mn654   2.080       .  S
C629       C1118   1.458       .  S
C629        O662   1.273       .  A
C629        O659   1.261       .  A
O630       Mn637   2.177       .  S
O630       Mn648   2.107       .  S
O630       Mn652   2.176       .  S
O630       Mn654   2.113       .  S
O631        C641   1.265       .  A
O631       Mn665   2.064       .  S
O632        C655   1.265       .  A
O632       Mn648   2.047       .  S
O633        C660   1.267       .  A
O633       Mn652   2.169       .  S
O634       Mn665   1.940       .  S
O634       Mn654   1.948       .  S
O634        C650   1.214       .  S
C635       C1007   1.506       .  S
C635        O638   1.268       .  A
C635        O661   1.211       .  S
O636       Mn656   2.124       .  S
O636       Mn637   2.167       .  S
O636       Mn670   2.111       .  S
O636       Mn652   2.176       .  S
Mn637       O666   2.156       .  S
Mn637       O642   2.165       .  S
Mn637       O669   2.161       .  S
Mn637       O643   2.157       .  S
O638       Mn652   2.179       .  S
O639        C641   1.278       .  A
O639       Mn646   2.118       .  S
C640       C1082   1.518       .  S
C640        O666   1.268       .  A
C640        O653   1.224       .  S
C641       C1019   1.466       .  S
O642        C667   1.264       .  A
O643       Mn646   2.107       .  S
O643       Mn665   2.118       .  S
O643       Mn652   2.173       .  S
O644       Mn648   1.932       .  S
O644       Mn670   1.924       .  S
O644        C667   1.208       .  S
C645       C1043   1.472       .  S
C645        O671   1.264       .  A
C645        O647   1.276       .  A
Mn646       O659   2.023       .  S
Mn646       O661   1.937       .  S
Mn646       O653   1.982       .  S
O647       Mn670   2.099       .  S
Mn648       O664   2.109       .  S
Mn648       O658   1.962       .  S
O649        C651   1.268       .  A
O649       Mn654   2.067       .  S
C650        C983   1.516       .  S
C650        O668   1.271       .  A
C651       C1058   1.487       .  S
C651        O664   1.275       .  A
Mn652       O668   2.186       .  S
O653       Mn656   1.984       .  S
Mn654       O672   1.954       .  S
C655        C995   1.443       .  S
Mn656       O663   2.107       .  S
Mn656       O671   2.045       .  S
Mn656       O661   1.930       .  S
C657       C1091   1.477       .  S
C657        O663   1.278       .  A
C657        O673   1.262       .  A
O658       Mn670   1.964       .  S
O658        C660   1.215       .  S
C660       C1031   1.518       .  S
O662       Mn665   2.090       .  S
Mn665       O672   1.971       .  S
C667       C1070   1.494       .  S
O669        C674   1.266       .  A
Mn670       O673   2.031       .  S
O672        C674   1.217       .  S
C674       C1106   1.518       .  S
N675        C679   1.345       .  A
N675        C676   1.349       .  A
N675        C910   1.442       .  S
C676        C677   1.380       .  A
C676       C1742   1.452       .  S
C677        C678   1.360       .  A
C677        H680   1.083       .  S
C678        C679   1.388       .  A
C678        H681   1.083       .  S
C679       C1322   1.472       .  S
N682        C686   1.368       .  A
N682        C683   1.360       .  A
N682        C844   1.469       .  S
C683        C684   1.379       .  A
C683       C1334   1.495       .  S
C684        C685   1.368       .  A
C684        H687   1.082       .  S
C685        C686   1.393       .  A
C685        H688   1.080       .  S
C686       C1730   1.518       .  S
N689        C693   1.374       .  A
N689        C690   1.365       .  A
N689        C810   1.472       .  S
C690        C691   1.380       .  A
C690       C1586   1.504       .  S
C691        C692   1.366       .  A
C691        H694   1.083       .  S
C692        C693   1.392       .  A
C692        H695   1.081       .  S
C693       C1478   1.526       .  S
N696        C700   1.369       .  A
N696        C697   1.357       .  A
N696        C922   1.463       .  S
C697        C698   1.368       .  A
C697       C1466   1.474       .  S
C698        C699   1.359       .  A
C698        H701   1.079       .  S
C699        C700   1.395       .  A
C699        H702   1.079       .  S
C700       C1598   1.513       .  S
N703        C707   1.352       .  A
N703        C704   1.350       .  A
N703        C921   1.450       .  S
C704        C705   1.378       .  A
C704       C1178   1.494       .  S
C705        C706   1.372       .  A
C705        H708   1.081       .  S
C706        C707   1.390       .  A
C706        H709   1.078       .  S
C707       C1046   1.490       .  S
N710        C714   1.378       .  A
N710        C711   1.377       .  A
N710        C845   1.479       .  S
C711        C712   1.383       .  A
C711       C1034   1.529       .  S
C712        C713   1.366       .  A
C712        H715   1.082       .  S
C713        C714   1.386       .  A
C713        H716   1.079       .  S
C714       C1190   1.526       .  S
N717        C721   1.348       .  A
N717        C718   1.339       .  A
N717        C855   1.439       .  S
C718        C719   1.383       .  A
C718       C1883   1.470       .  S
C719        C720   1.374       .  A
C719        H722   1.083       .  S
C720        C721   1.388       .  A
C720        H723   1.082       .  S
C721       C1442   1.483       .  S
N724        C728   1.378       .  A
N724        C725   1.375       .  A
N724        C899   1.485       .  S
C725        C726   1.382       .  A
C725       C1454   1.524       .  S
C726        C727   1.354       .  A
C726        H729   1.073       .  S
C727        C728   1.378       .  A
C727        H730   1.072       .  S
C728       C1874   1.524       .  S
N731        C735   1.379       .  A
N731        C732   1.380       .  A
N731        C935   1.495       .  S
C732        C733   1.391       .  A
C732       C1706   1.537       .  S
C733        C734   1.365       .  A
C733        H736   1.077       .  S
C734        C735   1.381       .  A
C734        H737   1.083       .  S
C735       C1166   1.528       .  S
N738        C742   1.348       .  A
N738        C739   1.350       .  A
N738        C889   1.445       .  S
C739        C740   1.378       .  A
C739       C1718   1.466       .  S
C740        C741   1.360       .  A
C740        H743   1.074       .  S
C741        C742   1.380       .  A
C741        H744   1.077       .  S
C742       C1154   1.485       .  S
N745        C749   1.348       .  A
N745        C746   1.346       .  A
N745        C831   1.443       .  S
C746        C747   1.388       .  A
C746       C1574   1.469       .  S
C747        C748   1.359       .  A
C747        H750   1.083       .  S
C748        C749   1.379       .  A
C748        H751   1.083       .  S
C749       C1130   1.453       .  S
N752        C756   1.366       .  A
N752        C753   1.374       .  A
N752        C877   1.481       .  S
C753        C754   1.395       .  A
C753       C1142   1.533       .  S
C754        C755   1.360       .  A
C754        H757   1.077       .  S
C755        C756   1.377       .  A
C755        H758   1.083       .  S
C756       C1562   1.493       .  S
N759        C763   1.364       .  A
N759        C760   1.357       .  A
N759        C890   1.461       .  S
C760        C761   1.380       .  A
C760       C1022   1.500       .  S
C761        C762   1.364       .  A
C761        H764   1.071       .  S
C762        C763   1.389       .  A
C762        H765   1.077       .  S
C763       C1298   1.513       .  S
N766        C770   1.373       .  A
N766        C767   1.361       .  A
N766        C900   1.472       .  S
C767        C768   1.381       .  A
C767       C1310   1.502       .  S
C768        C769   1.368       .  A
C768        H771   1.082       .  S
C769        C770   1.393       .  A
C769        H772   1.078       .  S
C770       C1010   1.526       .  S
N773        C777   1.342       .  A
N773        C774   1.345       .  A
N773        C820   1.434       .  S
C774        C775   1.387       .  A
C774        C998   1.476       .  S
C775        C776   1.373       .  A
C775        H778   1.082       .  S
C776        C777   1.374       .  A
C776        H779   1.071       .  S
C777       C1415   1.460       .  S
N780        C784   1.377       .  A
N780        C781   1.373       .  A
N780        C876   1.487       .  S
C781        C782   1.381       .  A
C781        C986   1.519       .  S
C782        C783   1.364       .  A
C782        H785   1.075       .  S
C783        C784   1.385       .  A
C783        H786   1.083       .  S
C784       C1430   1.529       .  S
N787        C791   1.359       .  A
N787        C788   1.363       .  A
N787        C865   1.466       .  S
C788        C789   1.391       .  A
C788       C1847   1.502       .  S
C789        C790   1.360       .  A
C789        H792   1.082       .  S
C790        C791   1.376       .  A
C790        H793   1.083       .  S
C791       C1283   1.474       .  S
N794        C798   1.352       .  A
N794        C795   1.342       .  A
N794        C821   1.443       .  S
C795        C796   1.386       .  A
C795       C1274   1.465       .  S
C796        C797   1.361       .  A
C796        H799   1.083       .  S
C797        C798   1.381       .  A
C797        H800   1.083       .  S
C798       C1859   1.455       .  S
N801        N802   1.335       .  A
N801        N807   1.317       .  A
N801       Mn830   2.281   1_455  S
N802        C809   1.370       .  A
N803        N805   1.310       .  A
N803        N804   1.334       .  A
N803       Mn819   2.228       .  S
N804        C810   1.363       .  A
N805        N806   1.323       .  A
N805       Mn830   2.233       .  S
N806        C810   1.361       .  A
N807        N808   1.330       .  A
N807       Mn819   2.245   1_455  S
N808        C809   1.361       .  A
N811        N817   1.314       .  A
N811        N812   1.318       .  A
N811       Mn841   2.181       .  S
N812        C820   1.356       .  A
N813        N814   1.321       .  A
N813        N815   1.319       .  A
N813       Mn819   2.211   1_455  S
N814        C821   1.355       .  A
N815        N816   1.321       .  A
N815       Mn841   2.230   1_455  S
N816        C821   1.359       .  A
N817        N818   1.309       .  A
N817       Mn819   2.184       .  S
N818        C820   1.350       .  A
Mn819      Cl843   2.548       .  S
N822        N823   1.316       .  A
N822        N828   1.318       .  A
N822       Mn830   2.202       .  S
N823        C831   1.354       .  A
N824        N826   1.320       .  A
N824        N825   1.315       .  A
N824       Mn842   2.185   1_455  S
N825        C832   1.344       .  A
N826        N827   1.322       .  A
N826       Mn830   2.225   1_455  S
N827        C832   1.358       .  A
N828        N829   1.323       .  A
N828       Mn842   2.232       .  S
N829        C831   1.361       .  A
Mn830      Cl843   2.549       .  S
N833        N834   1.323       .  A
N833        N839   1.315       .  A
N833       Mn841   2.219   1_455  S
N834        C844   1.357       .  A
N835        N836   1.331       .  A
N835        N837   1.313       .  A
N835       Mn842   2.249       .  S
N836        C845   1.364       .  A
N837        N838   1.335       .  A
N837       Mn841   2.265       .  S
N838        C845   1.368       .  A
N839        N840   1.335       .  A
N839       Mn842   2.264   1_455  S
N840        C844   1.367       .  A
Mn841      Cl843   2.562       .  S
Mn842      Cl843   2.545       .  S
N846        N847   1.321       .  A
N846        N852   1.319       .  A
N846       Mn875   2.224   1_554  S
N847        C854   1.357       .  A
N848        N850   1.318       .  A
N848        N849   1.319       .  A
N848       Mn864   2.209   1_556  S
N849        C855   1.354       .  A
N850        N851   1.319       .  A
N850       Mn875   2.202       .  S
N851        C855   1.354       .  A
N852        N853   1.320       .  A
N852       Mn864   2.211       .  S
N853        C854   1.355       .  A
N856        N862   1.315       .  A
N856        N857   1.328       .  A
N856       Mn886   2.248       .  S
N857        C865   1.362       .  A
N858        N859   1.332       .  A
N858        N860   1.315       .  A
N858       Mn864   2.252       .  S
N859        C866   1.364       .  A
N860        N861   1.340       .  A
N860       Mn886   2.306   1_554  S
N861        C866   1.371       .  A
N862        N863   1.330       .  A
N862       Mn864   2.240   1_556  S
N863        C865   1.362       .  A
Mn864      Cl888   2.560   1_554  S
N867        N868   1.335       .  A
N867        N873   1.317       .  A
N867       Mn875   2.271       .  S
N868        C876   1.367       .  A
N869        N871   1.314       .  A
N869        N870   1.340       .  A
N869       Mn887   2.278   1_554  S
N870        C877   1.370       .  A
N871        N872   1.324       .  A
N871       Mn875   2.228   1_554  S
N872        C877   1.360       .  A
N873        N874   1.336       .  A
N873       Mn887   2.285       .  S
N874        C876   1.368       .  A
Mn875      Cl888   2.565       .  S
N878        N879   1.316       .  A
N878        N884   1.319       .  A
N878       Mn886   2.213   1_554  S
N879        C889   1.350       .  A
N880        N881   1.325       .  A
N880        N882   1.322       .  A
N880       Mn887   2.247       .  S
N881        C890   1.359       .  A
N882        N883   1.329       .  A
N882       Mn886   2.247       .  S
N883        C890   1.358       .  A
N884        N885   1.325       .  A
N884       Mn887   2.218   1_554  S
N885        C889   1.356       .  A
Mn886      Cl888   2.566       .  S
Mn887      Cl888   2.562       .  S
N891        N892   1.332       .  A
N891        N897   1.313       .  A
N891       Mn920   2.295       .  S
N892        C899   1.367       .  A
N893        N895   1.316       .  A
N893        N894   1.321   1_545  A
N893       Mn909   2.220       .  S
N894        C900   1.357       .  A
N895        N896   1.337   1_545  A
N895       Mn920   2.263       .  S
N896        C900   1.366       .  A
N897        N898   1.335       .  A
N897       Mn909   2.231       .  S
N898        C899   1.362       .  A
N901        N907   1.314       .  A
N901        N902   1.320   1_545  A
N901       Mn931   2.212       .  S
N902        C910   1.357       .  A
N903        N904   1.320       .  A
N903        N905   1.320       .  A
N903       Mn909   2.194       .  S
N904        C911   1.349       .  A
N905        N906   1.324       .  A
N905       Mn931   2.234       .  S
N906        C911   1.354       .  A
N907        N908   1.321   1_545  A
N907       Mn909   2.203       .  S
N908        C910   1.356       .  A
Mn909      Cl933   2.568       .  S
N912        N913   1.317       .  A
N912        N918   1.318       .  A
N912       Mn920   2.210       .  S
N913        C921   1.351   1_545  A
N914        N916   1.323       .  A
N914        N915   1.336       .  A
N914       Mn932   2.276       .  S
N915        C922   1.365       .  A
N916        N917   1.317       .  A
N916       Mn920   2.233       .  S
N917        C922   1.351       .  A
N918        N919   1.327       .  A
N918       Mn932   2.224       .  S
N919        C921   1.359   1_545  A
Mn920      Cl933   2.552       .  S
N923        N924   1.335       .  A
N923        N929   1.314       .  A
N923       Mn931   2.238       .  S
N924        C934   1.361       .  A
N925        N926   1.339   1_545  A
N925        N927   1.320       .  A
N925       Mn932   2.305       .  S
N926        C935   1.371       .  A
N927        N928   1.336   1_545  A
N927       Mn931   2.282       .  S
N928        C935   1.367       .  A
N929        N930   1.324       .  A
N929       Mn932   2.239       .  S
N930        C934   1.362       .  A
Mn931      Cl933   2.559       .  S
Mn932      Cl933   2.563       .  S
O936        C963   1.255       .  A
O936       Mn962   2.013       .  S
C937       C1826   1.481       .  S
C937        O970   1.254       .  A
C937        O967   1.281       .  A
O938       Mn945   2.178       .  S
O938       Mn956   2.102       .  S
O938       Mn960   2.170       .  S
O938       Mn962   2.110       .  S
O939        C949   1.276       .  A
O939       Mn973   2.091       .  S
O940        C963   1.274       .  A
O940       Mn956   2.086       .  S
O941        C968   1.262       .  A
O941       Mn960   2.150       .  S
O942       Mn973   1.988       .  S
O942       Mn962   1.970       .  S
O942        C958   1.229       .  S
C943       C2030   1.512       .  S
C943        O946   1.265       .  A
C943        O969   1.211       .  S
O944       Mn964   2.101       .  S
O944       Mn945   2.166       .  S
O944       Mn978   2.119       .  S
O944       Mn960   2.156       .  S
Mn945       O974   2.184       .  S
Mn945       O950   2.197       .  S
Mn945       O977   2.148       .  S
Mn945       O951   2.177       .  S
O946       Mn960   2.172       .  S
O947        C949   1.262       .  A
O947       Mn954   2.039       .  S
C948       C1802   1.519       .  S
C948        O974   1.270       .  A
C948        O961   1.215       .  S
C949       C2114   1.459       .  S
O950        C975   1.272       .  A
O951       Mn954   2.115       .  S
O951       Mn973   2.120       .  S
O951       Mn960   2.150       .  S
O952       Mn956   1.995       .  S
O952       Mn978   1.994       .  S
O952        C975   1.232       .  A
C953       C2006   1.460       .  S
C953        O979   1.276       .  A
C953        O955   1.262       .  A
Mn954       O967   2.125       .  S
Mn954       O969   1.939       .  S
Mn954       O961   1.980       .  S
O955       Mn978   2.039       .  S
Mn956       O972   2.074       .  S
Mn956       O966   1.995       .  S
O957        C959   1.275       .  A
O957       Mn962   2.112       .  S
C958       C2090   1.508       .  S
C958        O976   1.263       .  A
C959       C1655   1.465       .  S
C959        O972   1.267       .  A
Mn960       O976   2.114       .  S
O961       Mn964   1.979       .  S
Mn962       O980   1.925       .  S
C963       C2066   1.450       .  S
Mn964       O971   2.059       .  S
Mn964       O979   2.103       .  S
Mn964       O969   1.955       .  S
C965       C1946   1.445       .  S
C965        O971   1.267       .  A
C965        O981   1.268       .  A
O966       Mn978   1.960       .  S
O966        C968   1.214       .  S
C968       C2042   1.511       .  S
O970       Mn973   2.015       .  S
Mn973       O980   1.927       .  S
C975       C1970   1.507       .  S
O977        C982   1.264       .  A
Mn978       O981   2.070       .  S
O980        C982   1.217       .  S
C982       C1682   1.493       .  S
C983        C984   1.401       .  A
C983        C988   1.427       .  A
C984        C985   1.417       .  A
C984        H989   1.083       .  S
C985        C986   1.429       .  A
C985        O990   1.374       .  S
C986        C987   1.398       .  A
C987        C988   1.410       .  A
C987        H991   1.083       .  S
C988        O992   1.371       .  S
O990        H994   0.992       .  S
O992        H993   0.992       .  S
C995        C996   1.396       .  A
C995       C1000   1.399       .  A
C996        C997   1.391       .  A
C996       H1001   1.085       .  S
C997        C998   1.417       .  A
C997       O1002   1.371       .  S
C998        C999   1.406       .  A
C999       C1000   1.391       .  A
C999       H1003   1.080       .  S
C1000      O1004   1.369       .  S
O1002      H1006   0.992       .  S
O1004      H1005   0.991       .  S
C1007      C1008   1.404       .  A
C1007      C1012   1.418       .  A
C1008      C1009   1.419       .  A
C1008      H1013   1.083       .  S
C1009      C1010   1.428       .  A
C1009      O1014   1.372       .  S
C1010      C1011   1.407       .  A
C1011      C1012   1.406       .  A
C1011      H1015   1.083       .  S
C1012      O1016   1.372       .  S
O1014      H1018   0.992       .  S
O1016      H1017   0.991       .  S
C1019      C1020   1.395       .  A
C1019      C1024   1.405       .  A
C1020      C1021   1.404       .  A
C1020      H1025   1.084       .  S
C1021      C1022   1.425       .  A
C1021      O1026   1.369       .  S
C1022      C1023   1.404       .  A
C1023      C1024   1.396       .  A
C1023      H1027   1.079       .  S
C1024      O1028   1.373       .  S
O1026      H1030   0.990       .  S
O1028      H1029   0.992       .  S
C1031      C1032   1.399       .  A
C1031      C1036   1.427       .  A
C1032      C1033   1.413       .  A
C1032      H1037   1.083       .  S
C1033      C1034   1.431       .  A
C1033      O1038   1.373       .  S
C1034      C1035   1.405       .  A
C1035      C1036   1.419       .  A
C1035      H1039   1.083       .  S
C1036      O1040   1.371       .  S
O1038      H1042   0.992       .  S
O1040      H1041   0.992       .  S
C1043      C1044   1.403       .  A
C1043      C1048   1.405       .  A
C1044      C1045   1.387       .  A
C1044      H1049   1.078       .  S
C1045      C1046   1.405       .  A
C1045      O1050   1.367       .  S
C1046      C1047   1.412       .  A
C1047      C1048   1.402       .  A
C1047      H1051   1.077       .  S
C1048      O1052   1.372       .  S
O1050      H1054   0.992       .  S
O1052      H1053   0.991       .  S
C1055      C1056   1.409       .  A
C1055      C1060   1.396       .  A
C1056      C1057   1.406       .  A
C1056      H1061   1.084       .  S
C1057      C1058   1.410       .  A
C1057      O1062   1.371       .  S
C1058      C1059   1.408       .  A
C1059      C1060   1.391       .  A
C1059      H1063   1.081       .  S
C1060      O1064   1.366       .  S
O1062      H1066   0.992       .  S
O1064      H1065   0.993       .  S
C1067      C1068   1.425       .  A
C1067      C1072   1.413       .  A
C1068      C1069   1.407       .  A
C1068      H1073   1.078       .  S
C1069      C1070   1.402       .  A
C1069      O1074   1.371       .  S
C1070      C1071   1.412       .  A
C1071      C1072   1.404       .  A
C1071      H1075   1.084       .  S
C1072      O1076   1.371       .  S
O1074      H1078   0.992       .  S
O1076      H1077   0.992       .  S
C1079      C1080   1.411       .  A
C1079      C1084   1.424       .  A
C1080      C1081   1.425       .  A
C1080      H1085   1.082   1_565  S
C1081      C1082   1.419       .  A
C1081      O1086   1.371       .  S
C1082      C1083   1.403       .  A
C1083      C1084   1.416       .  A
C1083      H1087   1.083       .  S
C1084      O1088   1.374       .  S
O1086      H1090   0.992       .  S
O1088      H1089   0.992       .  S
C1091      C1092   1.413       .  A
C1091      C1096   1.404       .  A
C1092      C1093   1.387       .  A
C1092      H1097   1.081       .  S
C1093      C1094   1.396   1_565  A
C1093      O1098   1.369       .  S
C1094      C1095   1.410       .  A
C1095      C1096   1.398   1_545  A
C1095      H1099   1.079       .  S
C1096      O1100   1.370       .  S
O1098      H1102   0.992       .  S
O1100      H1101   0.992   1_565  S
C1103      C1104   1.404       .  A
C1103      C1108   1.431       .  A
C1104      C1105   1.418       .  A
C1104      H1109   1.083       .  S
C1105      C1106   1.426       .  A
C1105      O1110   1.371       .  S
C1106      C1107   1.399       .  A
C1107      C1108   1.409       .  A
C1107      H1111   1.083       .  S
C1108      O1112   1.370       .  S
O1110      H1114   0.991       .  S
O1112      H1113   0.992       .  S
C1115      C1116   1.414       .  A
C1115      C1120   1.398       .  A
C1116      C1117   1.391       .  A
C1116      H1121   1.083       .  S
C1117      C1118   1.399       .  A
C1117      O1122   1.373       .  S
C1118      C1119   1.409       .  A
C1119      C1120   1.390       .  A
C1119      H1123   1.083       .  S
C1120      O1124   1.372       .  S
O1122      H1126   0.993       .  S
O1124      H1125   0.993       .  S
C1127      C1128   1.396       .  A
C1127      C1132   1.425       .  A
C1128      C1129   1.396       .  A
C1128      H1133   1.084       .  S
C1129      C1130   1.414       .  A
C1129      O1134   1.373       .  S
C1130      C1131   1.382       .  A
C1131      C1132   1.385       .  A
C1131      H1135   1.083       .  S
C1132      O1136   1.378       .  S
O1134      H1138   0.992       .  S
O1136      H1137   0.991       .  S
C1139      C1140   1.399       .  A
C1139      C1144   1.428       .  A
C1140      C1141   1.416       .  A
C1140      H1145   1.083       .  S
C1141      C1142   1.435       .  A
C1141      O1146   1.369       .  S
C1142      C1143   1.401       .  A
C1143      C1144   1.415       .  A
C1143      H1147   1.084       .  S
C1144      O1148   1.373       .  S
O1146      H1150   0.991       .  S
O1148      H1149   0.993       .  S
C1151      C1152   1.407       .  A
C1151      C1156   1.393       .  A
C1152      C1153   1.393       .  A
C1152      H1157   1.085       .  S
C1153      C1154   1.402       .  A
C1153      O1158   1.370       .  S
C1154      C1155   1.420       .  A
C1155      C1156   1.388       .  A
C1155      H1159   1.081       .  S
C1156      O1160   1.373       .  S
O1158      H1162   0.992       .  S
O1160      H1161   0.992       .  S
C1163      C1164   1.427       .  A
C1163      C1168   1.405       .  A
C1164      C1165   1.410       .  A
C1164      H1169   1.083       .  S
C1165      C1166   1.401       .  A
C1165      O1170   1.371       .  S
C1166      C1167   1.429       .  A
C1167      C1168   1.423       .  A
C1167      H1171   1.083       .  S
C1168      O1172   1.370       .  S
O1170      H1174   0.992       .  S
O1172      H1173   0.992       .  S
C1175      C1176   1.387       .  A
C1175      C1180   1.405       .  A
C1176      C1177   1.394       .  A
C1176      H1181   1.086       .  S
C1177      C1178   1.432       .  A
C1177      O1182   1.376       .  S
C1178      C1179   1.401       .  A
C1179      C1180   1.400       .  A
C1179      H1183   1.084       .  S
C1180      O1184   1.366       .  S
O1182      H1186   0.994       .  S
O1184      H1185   0.991       .  S
C1187      C1188   1.401       .  A
C1187      C1192   1.420       .  A
C1188      C1189   1.416       .  A
C1188      H1193   1.083       .  S
C1189      C1190   1.426       .  A
C1189      O1194   1.372       .  S
C1190      C1191   1.408       .  A
C1191      C1192   1.416       .  A
C1191      H1195   1.083       .  S
C1192      O1196   1.371       .  S
O1194      H1198   0.992       .  S
O1196      H1197   0.992       .  S
C1199      C1200   1.392       .  A
C1199      C1204   1.431       .  A
C1200      C1201   1.398       .  A
C1200      H1205   1.084       .  S
C1201      C1202   1.415       .  A
C1201      O1206   1.370       .  S
C1202      C1203   1.381       .  A
C1203      C1204   1.382       .  A
C1203      H1207   1.085       .  S
C1204      O1208   1.373       .  S
O1206      H1210   0.992       .  S
O1208      H1209   0.992       .  S
C1211      C1212   1.419       .  A
C1211      C1216   1.404       .  A
C1212      C1213   1.416       .  A
C1212      H1217   1.083       .  S
C1213      C1214   1.412       .  A
C1213      O1218   1.371       .  S
C1214      C1215   1.427       .  A
C1215      C1216   1.412       .  A
C1215      H1219   1.077       .  S
C1216      O1220   1.372       .  S
O1218      H1222   0.992       .  S
O1220      H1221   0.990       .  S
C1223      C1224   1.415       .  A
C1223      C1228   1.411       .  A
C1224      C1225   1.394       .  A
C1224      H1229   1.083       .  S
C1225      C1226   1.404       .  A
C1225      O1230   1.372       .  S
C1226      C1227   1.412       .  A
C1227      C1228   1.420       .  A
C1227      H1231   1.082       .  S
C1228      O1232   1.370       .  S
O1230      H1234   0.991       .  S
O1232      H1233   0.991       .  S
C1235      C1236   1.388   1_545  A
C1235      C1240   1.406       .  A
C1236      C1237   1.387       .  A
C1236      H1241   1.084       .  S
C1237      C1238   1.420       .  A
C1237      O1242   1.372       .  S
C1238      C1239   1.398       .  A
C1239      C1240   1.386   1_565  A
C1239      H1243   1.083       .  S
C1240      O1244   1.372       .  S
O1242      H1246   0.991       .  S
O1244      H1245   0.992       .  S
C1247      C1248   1.419       .  A
C1247      C1252   1.415       .  A
C1248      C1249   1.414       .  A
C1248      H1253   1.081       .  S
C1249      C1250   1.409       .  A
C1249      O1254   1.371       .  S
C1250      C1251   1.415       .  A
C1251      C1252   1.418       .  A
C1251      H1255   1.083       .  S
C1252      O1256   1.370       .  S
O1254      H1258   0.992       .  S
O1256      H1257   0.992       .  S
C1259      C1260   1.412       .  A
C1259      C1264   1.391       .  A
C1260      C1261   1.408       .  A
C1260      H1265   1.081       .  S
C1261      C1262   1.407       .  A
C1261      O1266   1.372       .  S
C1262      C1263   1.410       .  A
C1263      C1264   1.384       .  A
C1263      H1267   1.083       .  S
C1264      O1268   1.367       .  S
O1266      H1270   0.991       .  S
O1268      H1269   0.993       .  S
C1271      C1272   1.415       .  A
C1271      C1276   1.405       .  A
C1272      C1273   1.372       .  A
C1272      H1277   1.077       .  S
C1273      C1274   1.384       .  A
C1273      O1278   1.374       .  S
C1274      C1275   1.417       .  A
C1275      C1276   1.416       .  A
C1275      H1279   1.083       .  S
C1276      O1280   1.370       .  S
O1278      H1282   0.992       .  S
O1280      H1281   0.992       .  S
C1283      C1284   1.385       .  A
C1283      C1288   1.417       .  A
C1284      C1285   1.391       .  A
C1284      H1289   1.083       .  S
C1285      C1286   1.432       .  A
C1285      O1290   1.373       .  S
C1286      C1287   1.401       .  A
C1287      C1288   1.406       .  A
C1287      H1291   1.083       .  S
C1288      O1292   1.372       .  S
O1290      H1294   0.990       .  S
O1292      H1293   0.992       .  S
C1295      C1296   1.400       .  A
C1295      C1300   1.409       .  A
C1296      C1297   1.408       .  A
C1296      H1301   1.084       .  S
C1297      C1298   1.423       .  A
C1297      O1302   1.372       .  S
C1298      C1299   1.410       .  A
C1299      C1300   1.401       .  A
C1299      H1303   1.083       .  S
C1300      O1304   1.373       .  S
O1302      H1306   0.993       .  S
O1304      H1305   0.992       .  S
C1307      C1308   1.403       .  A
C1307      C1312   1.402       .  A
C1308      C1309   1.401       .  A
C1308      H1313   1.084       .  S
C1309      C1310   1.411       .  A
C1309      O1314   1.369       .  S
C1310      C1311   1.416       .  A
C1311      C1312   1.403       .  A
C1311      H1315   1.082       .  S
C1312      O1316   1.371       .  S
O1314      H1318   0.992       .  S
O1316      H1317   0.991       .  S
C1319      C1320   1.404       .  A
C1319      C1324   1.435       .  A
C1320      C1321   1.421       .  A
C1320      H1325   1.083       .  S
C1321      C1322   1.418       .  A
C1321      O1326   1.373       .  S
C1322      C1323   1.378       .  A
C1323      C1324   1.377       .  A
C1323      H1327   1.086       .  S
C1324      O1328   1.371       .  S
O1326      H1330   0.991       .  S
O1328      H1329   0.993       .  S
C1331      C1332   1.398       .  A
C1331      C1336   1.415       .  A
C1332      C1333   1.406       .  A
C1332      H1337   1.084       .  S
C1333      C1334   1.422       .  A
C1333      O1338   1.373       .  S
C1334      C1335   1.399       .  A
C1335      C1336   1.401       .  A
C1335      H1339   1.081       .  S
C1336      O1340   1.372       .  S
O1338      H1342   0.992       .  S
O1340      H1341   0.992       .  S
C1343      C1344   1.404       .  A
C1343      C1348   1.409       .  A
C1344      C1345   1.402       .  A
C1344      H1349   1.084       .  S
C1345      C1346   1.416       .  A
C1345      O1350   1.373       .  S
C1346      C1347   1.408       .  A
C1347      C1348   1.400       .  A
C1347      H1351   1.083       .  S
C1348      O1352   1.372       .  S
O1350      H1354   0.991       .  S
O1352      H1353   0.992       .  S
C1355      C1356   1.402       .  A
C1355      C1360   1.418       .  A
C1356      C1357   1.403       .  A
C1356      H1361   1.083       .  S
C1357      C1358   1.411       .  A
C1357      O1362   1.371   1_455  S
C1358      C1359   1.393       .  A
C1359      C1360   1.390       .  A
C1359      H1363   1.077       .  S
C1360      O1364   1.374       .  S
O1362      H1366   0.991       .  S
O1364      H1365   0.992       .  S
C1367      C1368   1.404       .  A
C1367      C1372   1.403   1_545  A
C1368      C1369   1.398   1_545  A
C1368      H1373   1.084       .  S
C1369      C1370   1.409       .  A
C1369      O1374   1.371       .  S
C1370      C1371   1.401       .  A
C1371      C1372   1.386       .  A
C1371      H1375   1.084       .  S
C1372      O1376   1.369       .  S
O1374      H1378   0.992       .  S
O1376      H1377   0.992       .  S
C1379      C1380   1.416       .  A
C1379      C1384   1.413       .  A
C1380      C1381   1.400       .  A
C1380      H1385   1.082       .  S
C1381      C1382   1.404       .  A
C1381      O1386   1.373       .  S
C1382      C1383   1.405       .  A
C1383      C1384   1.397       .  A
C1383      H1387   1.083       .  S
C1384      O1388   1.371       .  S
O1386      H1390   0.991       .  S
O1388      H1389   0.992   1_565  S
C1391      C1392   1.397       .  A
C1391      C1396   1.412       .  A
C1392      C1393   1.399       .  A
C1392      H1397   1.084       .  S
C1393      C1394   1.422       .  A
C1393      O1398   1.371       .  S
C1394      C1395   1.410       .  A
C1395      C1396   1.408       .  A
C1395      H1399   1.083       .  S
C1396      O1400   1.371       .  S
O1398      H1402   0.992       .  S
O1400      H1401   0.992       .  S
C1403      C1404   1.389       .  A
C1403      C1408   1.414       .  A
C1404      C1405   1.392       .  A
C1404      H1409   1.082       .  S
C1405      C1406   1.425       .  A
C1405      O1410   1.373       .  S
C1406      C1407   1.399       .  A
C1407      C1408   1.399       .  A
C1407      H1411   1.083       .  S
C1408      O1412   1.372   1_556  S
O1410      H1414   0.992       .  S
O1412      H1413   0.992       .  S
C1415      C1416   1.407       .  A
C1415      C1420   1.396       .  A
C1416      C1417   1.396       .  A
C1416      H1421   1.083       .  S
C1417      C1418   1.405       .  A
C1417      O1422   1.372       .  S
C1418      C1419   1.408       .  A
C1419      C1420   1.388       .  A
C1419      H1423   1.083       .  S
C1420      O1424   1.372       .  S
O1422      H1426   0.992       .  S
O1424      H1425   0.992       .  S
C1427      C1428   1.422       .  A
C1427      C1432   1.405       .  A
C1428      C1429   1.416       .  A
C1428      H1433   1.083       .  S
C1429      C1430   1.406       .  A
C1429      O1434   1.371       .  S
C1430      C1431   1.427       .  A
C1431      C1432   1.413       .  A
C1431      H1435   1.082       .  S
C1432      O1436   1.371       .  S
O1434      H1438   0.992       .  S
O1436      H1437   0.992       .  S
C1439      C1440   1.397       .  A
C1439      C1444   1.399       .  A
C1440      C1441   1.394       .  A
C1440      H1445   1.084       .  S
C1441      C1442   1.423       .  A
C1441      O1446   1.371       .  S
C1442      C1443   1.404       .  A
C1443      C1444   1.390       .  A
C1443      H1447   1.078       .  S
C1444      O1448   1.366       .  S
O1446      H1450   0.992       .  S
O1448      H1449   0.991       .  S
C1451      C1452   1.395       .  A
C1451      C1456   1.421       .  A
C1452      C1453   1.404       .  A
C1452      H1457   1.084       .  S
C1453      C1454   1.434       .  A
C1453      O1458   1.366       .  S
C1454      C1455   1.405       .  A
C1455      C1456   1.410       .  A
C1455      H1459   1.083       .  S
C1456      O1460   1.371       .  S
O1458      H1462   0.992       .  S
O1460      H1461   0.992       .  S
C1463      C1464   1.403       .  A
C1463      C1468   1.411       .  A
C1464      C1465   1.388       .  A
C1464      H1469   1.083       .  S
C1465      C1466   1.396       .  A
C1465      O1470   1.362       .  S
C1466      C1467   1.406       .  A
C1467      C1468   1.404       .  A
C1467      H1471   1.084       .  S
C1468      O1472   1.371       .  S
O1470      H1474   0.993       .  S
O1472      H1473   0.992       .  S
C1475      C1476   1.414       .  A
C1475      C1480   1.407       .  A
C1476      C1477   1.413       .  A
C1476      H1481   1.084       .  S
C1477      C1478   1.414       .  A
C1477      O1482   1.371       .  S
C1478      C1479   1.420       .  A
C1479      C1480   1.412       .  A
C1479      H1483   1.081       .  S
C1480      O1484   1.371       .  S
O1482      H1486   0.992       .  S
O1484      H1485   0.991       .  S
C1487      C1488   1.399       .  A
C1487      C1492   1.396       .  A
C1488      C1489   1.394       .  A
C1488      H1493   1.079       .  S
C1489      C1490   1.408       .  A
C1489      O1494   1.369       .  S
C1490      C1491   1.413       .  A
C1491      C1492   1.384       .  A
C1491      H1495   1.081       .  S
C1492      O1496   1.374       .  S
O1494      H1498   0.992       .  S
O1496      H1497   0.992       .  S
C1499      C1500   1.420       .  A
C1499      C1504   1.414       .  A
C1500      C1501   1.407       .  A
C1500      H1505   1.078       .  S
C1501      C1502   1.404       .  A
C1501      O1506   1.371       .  S
C1502      C1503   1.417       .  A
C1503      C1504   1.421       .  A
C1503      H1507   1.083       .  S
C1504      O1508   1.371       .  S
O1506      H1510   0.992       .  S
O1508      H1509   0.992       .  S
C1511      C1512   1.409       .  A
C1511      C1516   1.405       .  A
C1512      C1513   1.390       .  A
C1512      H1517   1.083       .  S
C1513      C1514   1.400       .  A
C1513      O1518   1.372       .  S
C1514      C1515   1.404       .  A
C1515      C1516   1.398       .  A
C1515      H1519   1.082       .  S
C1516      O1520   1.372       .  S
O1518      H1522   0.991       .  S
O1520      H1521   0.992       .  S
C1523      C1524   1.428       .  A
C1523      C1528   1.404       .  A
C1524      C1525   1.412       .  A
C1524      H1529   1.082       .  S
C1525      C1526   1.403       .  A
C1525      O1530   1.371       .  S
C1526      C1527   1.421       .  A
C1527      C1528   1.412       .  A
C1527      H1531   1.083       .  S
C1528      O1532   1.371       .  S
O1530      H1534   0.992       .  S
O1532      H1533   0.992       .  S
C1535      C1536   1.425       .  A
C1535      C1540   1.387       .  A
C1536      C1537   1.432       .  A
C1536      H1541   1.082       .  S
C1537      C1538   1.411       .  A
C1537      O1542   1.370       .  S
C1538      C1539   1.421       .  A
C1539      C1540   1.384       .  A
C1539      H1543   1.070       .  S
C1540      O1544   1.376       .  S
O1542      H1546   0.992       .  S
O1544      H1545   0.992       .  S
C1547      C1548   1.389       .  A
C1547      C1552   1.415       .  A
C1548      C1549   1.392       .  A
C1548      H1553   1.081       .  S
C1549      C1550   1.426       .  A
C1549      O1554   1.373       .  S
C1550      C1551   1.402       .  A
C1551      C1552   1.405       .  A
C1551      H1555   1.083       .  S
C1552      O1556   1.372       .  S
O1554      H1558   0.990       .  S
O1556      H1557   0.992       .  S
C1559      C1560   1.412       .  A
C1559      C1564   1.404       .  A
C1560      C1561   1.402       .  A
C1560      H1565   1.084       .  S
C1561      C1562   1.402       .  A
C1561      O1566   1.370       .  S
C1562      C1563   1.415       .  A
C1563      C1564   1.404       .  A
C1563      H1567   1.083       .  S
C1564      O1568   1.371       .  S
O1566      H1570   0.992       .  S
O1568      H1569   0.992       .  S
C1571      C1572   1.400       .  A
C1571      C1576   1.433       .  A
C1572      C1573   1.410       .  A
C1572      H1577   1.083       .  S
C1573      C1574   1.415       .  A
C1573      O1578   1.372       .  S
C1574      C1575   1.381       .  A
C1575      C1576   1.381       .  A
C1575      H1579   1.086       .  S
C1576      O1580   1.378       .  S
O1578      H1582   0.991       .  S
O1580      H1581   0.993       .  S
C1583      C1584   1.405       .  A
C1583      C1588   1.406       .  A
C1584      C1585   1.401       .  A
C1584      H1589   1.084       .  S
C1585      C1586   1.409       .  A
C1585      O1590   1.367       .  S
C1586      C1587   1.416       .  A
C1587      C1588   1.405       .  A
C1587      H1591   1.083       .  S
C1588      O1592   1.372       .  S
O1590      H1594   0.992       .  S
O1592      H1593   0.992       .  S
C1595      C1596   1.414       .  A
C1595      C1600   1.395       .  A
C1596      C1597   1.394       .  A
C1596      H1601   1.083       .  S
C1597      C1598   1.408       .  A
C1597      O1602   1.371       .  S
C1598      C1599   1.427       .  A
C1599      C1600   1.404       .  A
C1599      H1603   1.077       .  S
C1600      O1604   1.371       .  S
O1602      H1606   0.992       .  S
O1604      H1605   0.992       .  S
C1607      C1608   1.393       .  A
C1607      C1612   1.411       .  A
C1608      C1609   1.397       .  A
C1608      H1613   1.084       .  S
C1609      C1610   1.418       .  A
C1609      O1614   1.373       .  S
C1610      C1611   1.398       .  A
C1611      C1612   1.395       .  A
C1611      H1615   1.084       .  S
C1612      O1616   1.367       .  S
O1614      H1618   0.991       .  S
O1616      H1617   0.992       .  S
C1619      C1620   1.417       .  A
C1619      C1624   1.405       .  A
C1620      C1621   1.372       .  A
C1620      H1625   1.081       .  S
C1621      C1622   1.394       .  A
C1621      O1626   1.374       .  S
C1622      C1623   1.422       .  A
C1623      C1624   1.419       .  A
C1623      H1627   1.083       .  S
C1624      O1628   1.370       .  S
O1626      H1630   0.990       .  S
O1628      H1629   0.992       .  S
C1631      C1632   1.398       .  A
C1631      C1636   1.424       .  A
C1632      C1633   1.391       .  A
C1632      H1637   1.084       .  S
C1633      C1634   1.410       .  A
C1633      O1638   1.372   1_554  S
C1634      C1635   1.388       .  A
C1635      C1636   1.388       .  A
C1635      H1639   1.081       .  S
C1636      O1640   1.375       .  S
O1638      H1642   0.992       .  S
O1640      H1641   0.992       .  S
C1643      C1644   1.404       .  A
C1643      C1648   1.412       .  A
C1644      C1645   1.407       .  A
C1644      H1649   1.084       .  S
C1645      C1646   1.413       .  A
C1645      O1650   1.374       .  S
C1646      C1647   1.409       .  A
C1647      C1648   1.404       .  A
C1647      H1651   1.083       .  S
C1648      O1652   1.372       .  S
O1650      H1654   0.992       .  S
O1652      H1653   0.992       .  S
C1655      C1656   1.399       .  A
C1655      C1660   1.401       .  A
C1656      C1657   1.393       .  A
C1656      H1661   1.084       .  S
C1657      C1658   1.413       .  A
C1657      O1662   1.369       .  S
C1658      C1659   1.416       .  A
C1659      C1660   1.403       .  A
C1659      H1663   1.081       .  S
C1660      O1664   1.371       .  S
O1662      H1666   0.992       .  S
O1664      H1665   0.991       .  S
C1667      C1668   1.420       .  A
C1667      C1672   1.416       .  A
C1668      C1669   1.412       .  A
C1668      H1673   1.081       .  S
C1669      C1670   1.408       .  A
C1669      O1674   1.371       .  S
C1670      C1671   1.406       .  A
C1671      C1672   1.400       .  A
C1671      H1675   1.084       .  S
C1672      O1676   1.372       .  S
O1674      H1678   0.991       .  S
O1676      H1677   0.992       .  S
C1679      C1680   1.409       .  A
C1679      C1684   1.427       .  A
C1680      C1681   1.403       .  A
C1680      H1685   1.083       .  S
C1681      C1682   1.413       .  A
C1681      O1686   1.372       .  S
C1682      C1683   1.402       .  A
C1683      C1684   1.411       .  A
C1683      H1687   1.083       .  S
C1684      O1688   1.370       .  S
O1686      H1690   0.992       .  S
O1688      H1689   0.991       .  S
C1691      C1692   1.398       .  A
C1691      C1696   1.416       .  A
C1692      C1693   1.395       .  A
C1692      H1697   1.077       .  S
C1693      C1694   1.413       .  A
C1693      O1698   1.371       .  S
C1694      C1695   1.399       .  A
C1695      C1696   1.399       .  A
C1695      H1699   1.084       .  S
C1696      O1700   1.372       .  S
O1698      H1702   0.992       .  S
O1700      H1701   0.992       .  S
C1703      C1704   1.403       .  A
C1703      C1708   1.419       .  A
C1704      C1705   1.417       .  A
C1704      H1709   1.084       .  S
C1705      C1706   1.427       .  A
C1705      O1710   1.372       .  S
C1706      C1707   1.412       .  A
C1707      C1708   1.422       .  A
C1707      H1711   1.083       .  S
C1708      O1712   1.371       .  S
O1710      H1714   0.993       .  S
O1712      H1713   0.992       .  S
C1715      C1716   1.410       .  A
C1715      C1720   1.401       .  A
C1716      C1717   1.381       .  A
C1716      H1721   1.083       .  S
C1717      C1718   1.392       .  A
C1717      O1722   1.369       .  S
C1718      C1719   1.412       .  A
C1719      C1720   1.398       .  A
C1719      H1723   1.080       .  S
C1720      O1724   1.371       .  S
O1722      H1726   0.993       .  S
O1724      H1725   0.992       .  S
C1727      C1728   1.410       .  A
C1727      C1732   1.407       .  A
C1728      C1729   1.404       .  A
C1728      H1733   1.084       .  S
C1729      C1730   1.416       .  A
C1729      O1734   1.371       .  S
C1730      C1731   1.419       .  A
C1731      C1732   1.409       .  A
C1731      H1735   1.081       .  S
C1732      O1736   1.371       .  S
O1734      H1738   0.992       .  S
O1736      H1737   0.992       .  S
C1739      C1740   1.398       .  A
C1739      C1744   1.416       .  A
C1740      C1741   1.386       .  A
C1740      H1745   1.084       .  S
C1741      C1742   1.409       .  A
C1741      O1746   1.373       .  S
C1742      C1743   1.390       .  A
C1743      C1744   1.388       .  A
C1743      H1747   1.082       .  S
C1744      O1748   1.373       .  S
O1746      H1750   0.991       .  S
O1748      H1749   0.990       .  S
C1751      C1752   1.400       .  A
C1751      C1756   1.430       .  A
C1752      C1753   1.414       .  A
C1752      H1757   1.083       .  S
C1753      C1754   1.428       .  A
C1753      O1758   1.371       .  S
C1754      C1755   1.402       .  A
C1755      C1756   1.415       .  A
C1755      H1759   1.083       .  S
C1756      O1760   1.372       .  S
O1758      H1762   0.991       .  S
O1760      H1761   0.992   1_455  S
C1763      C1764   1.393       .  A
C1763      C1768   1.410       .  A
C1764      C1765   1.401       .  A
C1764      H1769   1.084       .  S
C1765      C1766   1.430       .  A
C1765      O1770   1.372       .  S
C1766      C1767   1.400       .  A
C1767      C1768   1.397       .  A
C1767      H1771   1.083       .  S
C1768      O1772   1.371       .  S
O1770      H1774   0.991       .  S
O1772      H1773   0.992       .  S
C1775      C1776   1.418       .  A
C1775      C1780   1.405       .  A
C1776      C1777   1.383       .  A
C1776      H1781   1.075       .  S
C1777      C1778   1.391       .  A
C1777      O1782   1.373       .  S
C1778      C1779   1.417       .  A
C1779      C1780   1.420       .  A
C1779      H1783   1.082       .  S
C1780      O1784   1.370       .  S
O1782      H1786   0.991       .  S
O1784      H1785   0.991       .  S
C1787      C1788   1.402       .  A
C1787      C1792   1.397       .  A
C1788      C1789   1.400       .  A
C1788      H1793   1.084       .  S
C1789      C1790   1.412       .  A
C1789      O1794   1.369       .  S
C1790      C1791   1.422       .  A
C1791      C1792   1.398       .  A
C1791      H1795   1.079       .  S
C1792      O1796   1.373       .  S
O1794      H1798   0.992       .  S
O1796      H1797   0.990       .  S
C1799      C1800   1.403       .  A
C1799      C1804   1.429       .  A
C1800      C1801   1.418       .  A
C1800      H1805   1.083       .  S
C1801      C1802   1.426       .  A
C1801      O1806   1.370       .  S
C1802      C1803   1.401       .  A
C1803      C1804   1.416       .  A
C1803      H1807   1.083       .  S
C1804      O1808   1.373       .  S
O1806      H1810   0.991       .  S
O1808      H1809   0.992       .  S
C1811      C1812   1.418       .  A
C1811      C1816   1.409       .  A
C1812      C1813   1.408       .  A
C1812      H1817   1.083   1_565  S
C1813      C1814   1.405       .  A
C1813      O1818   1.372       .  S
C1814      C1815   1.412       .  A
C1815      C1816   1.408       .  A
C1815      H1819   1.083       .  S
C1816      O1820   1.367       .  S
O1818      H1822   0.992       .  S
O1820      H1821   0.992       .  S
C1823      C1824   1.388       .  A
C1823      C1828   1.420       .  A
C1824      C1825   1.390       .  A
C1824      H1829   1.082       .  S
C1825      C1826   1.424       .  A
C1825      O1830   1.370       .  S
C1826      C1827   1.398       .  A
C1827      C1828   1.403       .  A
C1827      H1831   1.084       .  S
C1828      O1832   1.368       .  S
O1830      H1834   0.992       .  S
O1832      H1833   0.991       .  S
C1835      C1836   1.414       .  A
C1835      C1840   1.409       .  A
C1836      C1837   1.391       .  A
C1836      H1841   1.080   1_565  S
C1837      C1838   1.395       .  A
C1837      O1842   1.371       .  S
C1838      C1839   1.405       .  A
C1839      C1840   1.400       .  A
C1839      H1843   1.082       .  S
C1840      O1844   1.370       .  S
O1842      H1846   0.992   1_565  S
O1844      H1845   0.991       .  S
C1847      C1848   1.422       .  A
C1847      C1852   1.395       .  A
C1848      C1849   1.430       .  A
C1848      H1853   1.083       .  S
C1849      C1850   1.412       .  A
C1849      O1854   1.370       .  S
C1850      C1851   1.419       .  A
C1851      C1852   1.389       .  A
C1851      H1855   1.077       .  S
C1852      O1856   1.377       .  S
O1854      H1858   0.992       .  S
O1856      H1857   0.993       .  S
C1859      C1860   1.385       .  A
C1859      C1864   1.413       .  A
C1860      C1861   1.385       .  A
C1860      H1865   1.083       .  S
C1861      C1862   1.425       .  A
C1861      O1866   1.372       .  S
C1862      C1863   1.398       .  A
C1863      C1864   1.394       .  A
C1863      H1867   1.084       .  S
C1864      O1868   1.373       .  S
O1866      H1870   0.991       .  S
O1868      H1869   0.992       .  S
C1871      C1872   1.420       .  A
C1871      C1876   1.407       .  A
C1872      C1873   1.415       .  A
C1872      H1877   1.083       .  S
C1873      C1874   1.405       .  A
C1873      O1878   1.370       .  S
C1874      C1875   1.424       .  A
C1875      C1876   1.416       .  A
C1875      H1879   1.083       .  S
C1876      O1880   1.371       .  S
O1878      H1882   0.992       .  S
O1880      H1881   0.992       .  S
C1883      C1884   1.383       .  A
C1883      C1888   1.421       .  A
C1884      C1885   1.385       .  A
C1884      H1889   1.085       .  S
C1885      C1886   1.430       .  A
C1885      O1890   1.376       .  S
C1886      C1887   1.392       .  A
C1887      C1888   1.404       .  A
C1887      H1891   1.083       .  S
C1888      O1892   1.371       .  S
O1890      H1894   0.992       .  S
O1892      H1893   0.991       .  S
C1895      C1896   1.392       .  A
C1895      C1900   1.426       .  A
C1896      C1897   1.406       .  A
C1896      H1901   1.083       .  S
C1897      C1898   1.440       .  A
C1897      O1902   1.369       .  S
C1898      C1899   1.399       .  A
C1899      C1900   1.404       .  A
C1899      H1903   1.084       .  S
C1900      O1904   1.372       .  S
O1902      H1906   0.992       .  S
O1904      H1905   0.991       .  S
C1907      C1908   1.390       .  A
C1907      C1912   1.411       .  A
C1908      C1909   1.390       .  A
C1908      H1913   1.082       .  S
C1909      C1910   1.421       .  A
C1909      O1914   1.371       .  S
C1910      C1911   1.401       .  A
C1911      C1912   1.396       .  A
C1911      H1915   1.083       .  S
C1912      O1916   1.373       .  S
O1914      H1918   0.991       .  S
O1916      H1917   0.992       .  S
C1919      C1920   1.410       .  A
C1919      C1924   1.408       .  A
C1920      C1921   1.411       .  A
C1920      H1925   1.083       .  S
C1921      C1922   1.415       .  A
C1921      O1926   1.370       .  S
C1922      C1923   1.416       .  A
C1923      C1924   1.403       .  A
C1923      H1927   1.076       .  S
C1924      O1928   1.372       .  S
O1926      H1930   0.991       .  S
O1928      H1929   0.992       .  S
C1931      C1932   1.400       .  A
C1931      C1936   1.401       .  A
C1932      C1933   1.393       .  A
C1932      H1937   1.082       .  S
C1933      C1934   1.412       .  A
C1933      O1938   1.371       .  S
C1934      C1935   1.410       .  A
C1935      C1936   1.393       .  A
C1935      H1939   1.082       .  S
C1936      O1940   1.371       .  S
O1938      H1942   0.991       .  S
O1940      H1941   0.991       .  S
C1943      C1944   1.413       .  A
C1943      C1948   1.399       .  A
C1944      C1945   1.387       .  A
C1944      H1949   1.080       .  S
C1945      C1946   1.395       .  A
C1945      O1950   1.373       .  S
C1946      C1947   1.406       .  A
C1947      C1948   1.392       .  A
C1947      H1951   1.085       .  S
C1948      O1952   1.370       .  S
O1950      H1954   0.993       .  S
O1952      H1953   0.992       .  S
C1955      C1956   1.392       .  A
C1955      C1960   1.428       .  A
C1956      C1957   1.383       .  A
C1956      H1961   1.079       .  S
C1957      C1958   1.415       .  A
C1957      O1962   1.374       .  S
C1958      C1959   1.394       .  A
C1959      C1960   1.407       .  A
C1959      H1963   1.084       .  S
C1960      O1964   1.373       .  S
O1962      H1966   0.992       .  S
O1964      H1965   0.992       .  S
C1967      C1968   1.393       .  A
C1967      C1972   1.420       .  A
C1968      C1969   1.401       .  A
C1968      H1973   1.084       .  S
C1969      C1970   1.430       .  A
C1969      O1974   1.374       .  S
C1970      C1971   1.399       .  A
C1971      C1972   1.417       .  A
C1971      H1975   1.083       .  S
C1972      O1976   1.369       .  S
O1974      H1978   0.991       .  S
O1976      H1977   0.992       .  S
C1979      C1980   1.389       .  A
C1979      C1984   1.427       .  A
C1980      C1981   1.401       .  A
C1980      H1985   1.085       .  S
C1981      C1982   1.439       .  A
C1981      O1986   1.374       .  S
C1982      C1983   1.404       .  A
C1983      C1984   1.430       .  A
C1983      H1987   1.083       .  S
C1984      O1988   1.369       .  S
O1986      H1990   0.993       .  S
O1988      H1989   0.992       .  S
C1991      C1992   1.411       .  A
C1991      C1996   1.390       .  A
C1992      C1993   1.408       .  A
C1992      H1997   1.084       .  S
C1993      C1994   1.404       .  A
C1993      O1998   1.371       .  S
C1994      C1995   1.413       .  A
C1995      C1996   1.382       .  A
C1995      H1999   1.077       .  S
C1996      O2000   1.372       .  S
O1998      H2002   0.991       .  S
O2000      H2001   0.991       .  S
C2003      C2004   1.406       .  A
C2003      C2008   1.395       .  A
C2004      C2005   1.394       .  A
C2004      H2009   1.084       .  S
C2005      C2006   1.399       .  A
C2005      O2010   1.371       .  S
C2006      C2007   1.411       .  A
C2007      C2008   1.388       .  A
C2007      H2011   1.084       .  S
C2008      O2012   1.372       .  S
O2010      H2014   0.991       .  S
O2012      H2013   0.992       .  S
C2015      C2016   1.416       .  A
C2015      C2020   1.400       .  A
C2016      C2017   1.398       .  A
C2016      H2021   1.083       .  S
C2017      C2018   1.397       .  A
C2017      O2022   1.370       .  S
C2018      C2019   1.408       .  A
C2019      C2020   1.394       .  A
C2019      H2023   1.084       .  S
C2020      O2024   1.371       .  S
O2022      H2026   0.991       .  S
O2024      H2025   0.992       .  S
C2027      C2028   1.401       .  A
C2027      C2032   1.436       .  A
C2028      C2029   1.407       .  A
C2028      H2033   1.084       .  S
C2029      C2030   1.424       .  A
C2029      O2034   1.371       .  S
C2030      C2031   1.398       .  A
C2031      C2032   1.412       .  A
C2031      H2035   1.083       .  S
C2032      O2036   1.368       .  S
O2034      H2038   0.992       .  S
O2036      H2037   0.992       .  S
C2039      C2040   1.425       .  A
C2039      C2044   1.412       .  A
C2040      C2041   1.407       .  A
C2040      H2045   1.077       .  S
C2041      C2042   1.404       .  A
C2041      O2046   1.371       .  S
C2042      C2043   1.418       .  A
C2043      C2044   1.418       .  A
C2043      H2047   1.083       .  S
C2044      O2048   1.371       .  S
O2046      H2050   0.991       .  S
O2048      H2049   0.992       .  S
C2051      C2052   1.429       .  A
C2051      C2056   1.412       .  A
C2052      C2053   1.415       .  A
C2052      H2057   1.076       .  S
C2053      C2054   1.405       .  A
C2053      O2058   1.371       .  S
C2054      C2055   1.421       .  A
C2055      C2056   1.422       .  A
C2055      H2059   1.083       .  S
C2056      O2060   1.371       .  S
O2058      H2062   0.992       .  S
O2060      H2061   0.991       .  S
C2063      C2064   1.414       .  A
C2063      C2068   1.389       .  A
C2064      C2065   1.387       .  A
C2064      H2069   1.080       .  S
C2065      C2066   1.390       .  A
C2065      O2070   1.371       .  S
C2066      C2067   1.416       .  A
C2067      C2068   1.386       .  A
C2067      H2071   1.084       .  S
C2068      O2072   1.373   1_455  S
O2070      H2074   0.992       .  S
O2072      H2073   0.991       .  S
C2075      C2076   1.388       .  A
C2075      C2080   1.417       .  A
C2076      C2077   1.389       .  A
C2076      H2081   1.082       .  S
C2077      C2078   1.422       .  A
C2077      O2082   1.373       .  S
C2078      C2079   1.398       .  A
C2079      C2080   1.395       .  A
C2079      H2083   1.084       .  S
C2080      O2084   1.373       .  S
O2082      H2086   0.993       .  S
O2084      H2085   0.991       .  S
C2087      C2088   1.415       .  A
C2087      C2092   1.415       .  A
C2088      C2089   1.405       .  A
C2088      H2093   1.082       .  S
C2089      C2090   1.409       .  A
C2089      O2094   1.372       .  S
C2090      C2091   1.413       .  A
C2091      C2092   1.419       .  A
C2091      H2095   1.083       .  S
C2092      O2096   1.370       .  S
O2094      H2098   0.988       .  S
O2096      H2097   0.992       .  S
C2099      C2100   1.407       .  A
C2099      C2104   1.424       .  A
C2100      C2101   1.418       .  A
C2100      H2105   1.082       .  S
C2101      C2102   1.420       .  A
C2101      O2106   1.371       .  S
C2102      C2103   1.405       .  A
C2103      C2104   1.418       .  A
C2103      H2107   1.083       .  S
C2104      O2108   1.374       .  S
O2106      H2110   0.992       .  S
O2108      H2109   0.992       .  S
C2111      C2112   1.385       .  A
C2111      C2116   1.422       .  A
C2112      C2113   1.382       .  A
C2112      H2117   1.082       .  S
C2113      C2114   1.418       .  A
C2113      O2118   1.370       .  S
C2114      C2115   1.391       .  A
C2115      C2116   1.392       .  A
C2115      H2119   1.084       .  S
C2116      O2120   1.373       .  S
O2118      H2122   0.989       .  S
O2120      H2121   0.992       .  S
C2123      C2124   1.415       .  A
C2123      C2128   1.423       .  A
C2124      C2125   1.385       .  A
C2124      H2129   1.075       .  S
C2125      C2126   1.391       .  A
C2125      O2130   1.372       .  S
C2126      C2127   1.388       .  A
C2127      C2128   1.384       .  A
C2127      H2131   1.085       .  S
C2128      O2132   1.368       .  S
O2130      H2134   0.992       .  S
O2132      H2133   0.992       .  S
