geometry optimzed in LAMMPS
_audit_creation_date              2020-12-01 
_audit_creation_method            'lammps2cif' 
_symmetry_space_group_name_H-M    'P1' 
_symmetry_Int_Tables_number       1 
_symmetry_cell_setting            triclinic 
loop_ 
_symmetry_equiv_pos_as_xyz 
  x,y,z 
_cell_length_a                    59.99864745 
_cell_length_b                    60.855540894891156 
_cell_length_c                    60.45355901810775 
_cell_angle_alpha                 89.52408951582986 
_cell_angle_beta                  90.2598744792028 
_cell_angle_gamma                 89.88858589441358 
loop_ 
_atom_site_label 
_atom_site_type_symbol 
_atom_site_fract_x 
_atom_site_fract_y 
_atom_site_fract_z 
_atom_site_charge 
C1          C  0.80008528  0.81520947  0.02070452     0.03000
C2          C  0.79200994  0.80582871  0.00099220    -0.13200
C3          C  0.79904554  0.81395082  0.98029841     0.00500
C4          C  0.81435583  0.83144848  0.97937503    -0.11700
C5          C  0.82280259  0.84072469  0.99885337     0.03000
C6          C  0.81546903  0.83262065  0.01929534    -0.11100
H7          H  0.78001746  0.79256037  0.00167387     0.08600
H8          H  0.81965598  0.83785094  0.96346525     0.06100
H9          H  0.82124522  0.84058923  0.03421540     0.05900
C10         C  0.76574185  0.21248090  0.02325452     0.03000
C11         C  0.78371838  0.19756073  0.02409902    -0.13200
C12         C  0.79660028  0.19328855  0.00533027     0.00500
C13         C  0.79141841  0.20406415  0.98535474    -0.11700
C14         C  0.77328632  0.21873799  0.98372915     0.03000
C15         C  0.76047344  0.22282874  0.00282524    -0.11100
H16         H  0.78834360  0.18977629  0.03963530     0.08600
H17         H  0.80112047  0.20033688  0.97077969     0.06100
H18         H  0.74657716  0.23417648  0.00181404     0.05900
C19         C  0.19722085  0.85143963  0.02400804     0.03000
C20         C  0.17970792  0.86692100  0.02325437    -0.13200
C21         C  0.17004098  0.87347033  0.00319139     0.00500
C22         C  0.17790776  0.86453460  0.98357040    -0.11700
C23         C  0.19482646  0.84849579  0.98366339     0.03000
C24         C  0.20467356  0.84214359  0.00399506    -0.11100
H25         H  0.17286076  0.87338314  0.03842572     0.08600
H26         H  0.17064079  0.87014880  0.96807602     0.06100
H27         H  0.21775078  0.82986039  0.00424527     0.05900
C28         C  0.79592717  0.04935991  0.79440588     0.03000
C29         C  0.78544970  0.03034976  0.78622668    -0.13200
C30         C  0.79067779  0.00958410  0.79525721     0.00500
C31         C  0.80670325  0.00792438  0.81228131    -0.11700
C32         C  0.81756546  0.02663512  0.82017205     0.03000
C33         C  0.81198564  0.04719948  0.81129913    -0.11100
H34         H  0.77303452  0.03169472  0.77321790     0.08600
H35         H  0.81096931  0.99196344  0.81919652     0.06100
H36         H  0.81970723  0.06168273  0.81825567     0.05900
C37         C  0.96698800  0.20663202  0.78931314     0.03000
C38         C  0.96646833  0.19267744  0.80802525    -0.13200
C39         C  0.98593937  0.18786687  0.82008949     0.00500
C40         C  0.00610002  0.19732154  0.81330890    -0.11700
C41         C  0.00715609  0.21130582  0.79472378     0.03000
C42         C  0.98754959  0.21568066  0.78261639    -0.11100
H43         H  0.95079200  0.18575224  0.81344235     0.08600
H44         H  0.02114252  0.19386300  0.82268369     0.06100
H45         H  0.98824918  0.22644200  0.76828278     0.05900
C46         C  0.96325276  0.85408189  0.79030467     0.03000
C47         C  0.96479940  0.86733496  0.80917009    -0.13200
C48         C  0.98504446  0.87665656  0.81560274     0.00500
C49         C  0.00428884  0.87196597  0.80344009    -0.11700
C50         C  0.00343914  0.85788002  0.78502367     0.03000
C51         C  0.98271366  0.84919201  0.77843059    -0.11100
H52         H  0.95005051  0.87071837  0.81884851     0.08600
H53         H  0.02007777  0.87855601  0.80901959     0.06100
H54         H  0.98166868  0.83900788  0.76386049     0.05900
C55         C  0.18836845  0.04697556  0.82201318     0.03000
C56         C  0.16912558  0.04558180  0.83500081    -0.13200
C57         C  0.16129338  0.02535981  0.84260179     0.00500
C58         C  0.17232065  0.00612737  0.83665512    -0.11700
C59         C  0.19129868  0.00689377  0.82315274     0.03000
C60         C  0.19929135  0.02746753  0.81574665    -0.11100
H61         H  0.16033872  0.06041010  0.83964666     0.08600
H62         H  0.16569370  0.99047654  0.84219377     0.06100
H63         H  0.21416864  0.02830491  0.80569730     0.05900
C64         C  0.95985949  0.80923048  0.17827640     0.03000
C65         C  0.96050219  0.82866166  0.16531038    -0.13200
C66         C  0.98082488  0.83832356  0.15933943     0.00500
C67         C  0.00072378  0.82890740  0.16704196    -0.11700
C68         C  0.00066538  0.81024588  0.18091553     0.03000
C69         C  0.98021838  0.80012577  0.18604404    -0.11100
H70         H  0.94517896  0.83642543  0.15979343     0.08600
H71         H  0.01641772  0.83669961  0.16290504     0.06100
H72         H  0.98022096  0.78560885  0.19651070     0.05900
C73         C  0.77011260  0.04853292  0.18945186     0.03000
C74         C  0.78554303  0.04896313  0.17207487    -0.13200
C75         C  0.79233918  0.02962274  0.16194104     0.00500
C76         C  0.78305978  0.00960709  0.16855589    -0.11700
C77         C  0.76748940  0.00879405  0.18580416     0.03000
C78         C  0.76074085  0.02834808  0.19603268    -0.11100
H79         H  0.79272205  0.06439704  0.16659025     0.08600
H80         H  0.78884177  0.99450289  0.16108830     0.06100
H81         H  0.74940713  0.02765266  0.20991895     0.05900
C82         C  0.95671609  0.20260458  0.22191833     0.03000
C83         C  0.95788014  0.19015019  0.20248019    -0.13200
C84         C  0.97823296  0.18282217  0.19409286     0.00500
C85         C  0.99803712  0.18934197  0.20448915    -0.11700
C86         C  0.99771928  0.20198476  0.22400827     0.03000
C87         C  0.97679313  0.20844313  0.23265647    -0.11100
H88         H  0.94275538  0.18611407  0.19356522     0.08600
H89         H  0.01369345  0.18429644  0.19731482     0.06100
H90         H  0.97604247  0.21747556  0.24797291     0.05900
Zr91       Zr  0.25055580  0.30490262  0.28900350     2.17500
O92         O  0.27748893  0.29899142  0.31884388    -0.51500
O93         O  0.25253379  0.34492834  0.28704792    -0.74700
O94         O  0.28855088  0.30966170  0.27638398    -0.81500
O95         O  0.20645980  0.29355724  0.33308595    -0.83200
O96         O  0.29061902  0.30137447  0.23978778    -0.78900
O97         O  0.23918766  0.31151113  0.32687084    -0.90500
O98         O  0.22405397  0.35646098  0.26496838    -0.76400
O99         O  0.24384081  0.31649851  0.25184019    -0.85900
O100        O  0.21170944  0.31311701  0.28752565    -0.85600
O101        O  0.26131628  0.27439383  0.26637664    -0.72400
O102        O  0.23167990  0.27156886  0.29906675    -0.84500
Zr103      Zr  0.19610367  0.26146832  0.23692288     2.26400
Zr104      Zr  0.25400809  0.28599112  0.22891277     2.06300
Zr105      Zr  0.19256555  0.27988400  0.29716439     2.10000
Zr106      Zr  0.20501841  0.32447559  0.25045407     1.78800
O107        O  0.18539535  0.25112358  0.32443810    -0.93300
O108        O  0.21363987  0.34436457  0.21643023    -0.41100
O109        O  0.18496905  0.29163722  0.25989228    -0.77800
O110        O  0.21500335  0.29477935  0.22685800    -0.96500
O111        O  0.23472320  0.25269787  0.23821409    -0.89800
O112        O  0.20281053  0.24968686  0.27398533    -0.92600
C113        C  0.24094910  0.36009188  0.27749088     1.01200
C114        C  0.22326058  0.30515989  0.33952007     1.14100
C115        C  0.29940209  0.30761414  0.25825300     1.04900
O116        O  0.26341416  0.31322011  0.20075606    -0.94800
O117        O  0.24014467  0.27271801  0.19261742    -0.90500
O118        O  0.20506924  0.25948116  0.19790941    -0.83600
C119        C  0.22168275  0.26434073  0.18545927     1.11500
O120        O  0.27090206  0.23192480  0.30172245    -0.96700
Zr121      Zr  0.24155806  0.24158040  0.27544209     1.88900
O122        O  0.19872756  0.22164595  0.23438200    -0.73400
O123        O  0.28228988  0.26005518  0.21673722    -0.52600
O124        O  0.27492132  0.22483210  0.26010188    -0.97300
O125        O  0.22942223  0.21833312  0.30610657    -0.54500
O126        O  0.22760627  0.20983522  0.25579474    -0.73900
C127        C  0.21143599  0.20647206  0.24232124     0.98500
O128        O  0.16571120  0.26603383  0.21026662    -0.62700
O129        O  0.16390273  0.30434967  0.31141613    -0.57500
O130        O  0.16016725  0.25125537  0.25164007    -0.94200
O131        O  0.15591902  0.26447955  0.28645128    -0.92600
O132        O  0.17794207  0.34861756  0.26782147    -0.93000
O133        O  0.17145329  0.32980457  0.22825722    -0.91800
C134        C  0.14869813  0.25431713  0.26917870     1.17300
H135        H  0.20791936  0.32479671  0.29757100     0.33200
H136        H  0.21100996  0.29906876  0.21194616     0.44100
H137        H  0.19407470  0.23682923  0.27755071     0.37600
H138        H  0.27692327  0.27099841  0.26834223     0.34100
H139        H  0.21716600  0.35950458  0.22115340     0.25900
H140        H  0.28963590  0.26747375  0.20409630     0.31800
H141        H  0.27223985  0.22461142  0.24393827     0.37700
H142        H  0.16834944  0.33866329  0.27661465     0.32200
H143        H  0.15281359  0.30581586  0.29931198     0.31100
H144        H  0.17477094  0.25781008  0.33491913     0.32700
H145        H  0.21445451  0.21296742  0.30185986     0.31700
H146        H  0.17067060  0.31662166  0.21879745     0.35700
H147        H  0.15818475  0.25158629  0.20947251     0.28400
H148        H  0.28633312  0.31268848  0.31962697     0.32700
H149        H  0.27592354  0.24617482  0.30772855     0.35500
H150        H  0.15622610  0.29560945  0.32296857     0.28100
H151        H  0.15479842  0.27593367  0.21736266     0.41000
H152        H  0.27441179  0.30578227  0.19120367     0.31100
H153        H  0.22810036  0.33826530  0.21159705     0.38700
H154        H  0.22663567  0.22865298  0.31837139     0.30500
H155        H  0.29371013  0.25988734  0.22861193     0.30600
H156        H  0.28797493  0.28771882  0.31335650     0.30900
C157        C  0.17384159  0.05089159  0.20492725     0.03000
C158        C  0.18689040  0.03225234  0.21035545    -0.13200
C159        C  0.18191945  0.01164381  0.20115051     0.00500
C160        C  0.16326358  0.00959813  0.18731689    -0.11700
C161        C  0.15036709  0.02783360  0.18155482     0.03000
C162        C  0.15568511  0.04838523  0.19031055    -0.11100
H163        H  0.20106194  0.03377189  0.22136747     0.08600
H164        H  0.15871054  0.99366117  0.18083847     0.06100
H165        H  0.14617202  0.06257540  0.18484458     0.05900
Zr166      Zr  0.25781436  0.76257306  0.28421974     2.17500
O167        O  0.28568974  0.73368721  0.28944328    -0.51500
O168        O  0.25421989  0.76343747  0.32409356    -0.74700
O169        O  0.29491043  0.77658366  0.29244462    -0.81500
O170        O  0.21512073  0.71807094  0.26716900    -0.83200
O171        O  0.29934100  0.81121990  0.27895832    -0.78900
O172        O  0.24897047  0.72388835  0.28324199    -0.90500
O173        O  0.22589085  0.78603115  0.33394422    -0.76400
O174        O  0.25069470  0.79948470  0.29427175    -0.85900
O175        O  0.21864691  0.76428790  0.29044316    -0.85600
O176        O  0.27079539  0.78337423  0.25298364    -0.72400
O177        O  0.24036472  0.75172221  0.25025196    -0.84500
Zr178      Zr  0.20656836  0.81340602  0.23490080     2.26400
Zr179      Zr  0.26297384  0.82066976  0.26308520     2.06300
Zr180      Zr  0.20102615  0.75444325  0.25616168     2.10000
Zr181      Zr  0.21144166  0.80157776  0.29969941     1.78800
O182        O  0.19038831  0.72812221  0.22793419    -0.93300
O183        O  0.22085917  0.83358453  0.32179799    -0.41100
O184        O  0.19375732  0.79183531  0.26564729    -0.77800
O185        O  0.22353118  0.82409926  0.26926892    -0.96500
O186        O  0.24553670  0.81067045  0.22894038    -0.89800
O187        O  0.21287437  0.77613742  0.22510574    -0.92600
C188        C  0.24189679  0.77276265  0.33852973     1.01200
C189        C  0.23335713  0.71130836  0.27627543     1.14100
C190        C  0.30657271  0.79393550  0.28904291     1.04900
O191        O  0.27159176  0.84736231  0.29167865    -0.94800
O192        O  0.25126950  0.85634260  0.24917451    -0.90500
O193        O  0.22040218  0.85026045  0.22810415    -0.83600
C194        C  0.23581420  0.86263335  0.23583083     1.11500
O195        O  0.27959216  0.74440744  0.21534934    -0.96700
Zr196      Zr  0.25196156  0.77344080  0.21936783     1.88900
O197        O  0.21020384  0.81373565  0.19477826    -0.73400
O198        O  0.29032326  0.83449984  0.23683329    -0.52600
O199        O  0.28535398  0.78802095  0.20185899    -0.97300
O200        O  0.24015377  0.74273490  0.19651414    -0.54500
O201        O  0.23851376  0.79077484  0.18553139    -0.73900
C202        C  0.22317191  0.80469950  0.18061746     0.98500
O203        O  0.17711570  0.84111184  0.23599351    -0.62700
O204        O  0.17291704  0.74138433  0.28199734    -0.57500
O205        O  0.16852399  0.80108699  0.22903713    -0.94200
O206        O  0.16492184  0.76547188  0.24023003    -0.92600
O207        O  0.17905608  0.78523369  0.31759288    -0.93000
O208        O  0.18007070  0.82677007  0.30319344    -0.91800
C209        C  0.15699523  0.78353286  0.23216804     1.17300
H210        H  0.21432412  0.75430737  0.30214714     0.33200
H211        H  0.21967027  0.83913816  0.27255872     0.44100
H212        H  0.20458788  0.77224167  0.21197213     0.37600
H213        H  0.28655989  0.78117641  0.25074373     0.34100
H214        H  0.21327673  0.83110937  0.33611734     0.25900
H215        H  0.29994114  0.84442216  0.24556525     0.31800
H216        H  0.28627056  0.78031947  0.18752634     0.37700
H217        H  0.18416230  0.77077231  0.32328660     0.32200
H218        H  0.16434831  0.75470843  0.28590382     0.31100
H219        H  0.17890817  0.71882651  0.23506263     0.32700
H220        H  0.23235671  0.74933440  0.18360951     0.31700
H221        H  0.17059722  0.82387368  0.29008436     0.35700
H222        H  0.18202059  0.85200482  0.24707445     0.28400
H223        H  0.29251973  0.73626473  0.30413954     0.32700
H224        H  0.28640450  0.74281200  0.23022707     0.35500
H225        H  0.16249534  0.73268841  0.27284114     0.28100
H226        H  0.17776314  0.84895577  0.22159033     0.41000
H227        H  0.28192594  0.85787988  0.28452313     0.31100
H228        H  0.23691200  0.83183017  0.32526134     0.38700
H229        H  0.22821256  0.73548751  0.20511501     0.30500
H230        H  0.29991616  0.82169007  0.23356026     0.30600
H231        H  0.29761510  0.73687052  0.27861146     0.30900
Zr232      Zr  0.75036846  0.25437429  0.22434854     2.17500
O233        O  0.77687641  0.25303046  0.19391761    -0.51500
O234        O  0.74842223  0.21479888  0.22758554    -0.74700
O235        O  0.78809197  0.24573557  0.23719062    -0.81500
O236        O  0.70456574  0.26769031  0.18186442    -0.83200
O237        O  0.79362330  0.25935278  0.27172862    -0.78900
O238        O  0.73623021  0.24761409  0.18733205    -0.90500
O239        O  0.71939904  0.20533865  0.24957323    -0.76400
O240        O  0.74496947  0.24471767  0.26204506    -0.85900
O241        O  0.71134073  0.24825996  0.22808894    -0.85600
O242        O  0.76431870  0.28525641  0.24458609    -0.72400
O243        O  0.73278993  0.28841947  0.21349237    -0.84500
Zr244      Zr  0.70165912  0.30377585  0.27656846     2.26400
Zr245      Zr  0.75806117  0.27559749  0.28264277     2.06300
Zr246      Zr  0.69359362  0.28223256  0.21808901     2.10000
Zr247      Zr  0.70593788  0.23916454  0.26590540     1.78800
O248        O  0.68313299  0.30942374  0.19012216    -0.93300
O249        O  0.71829452  0.21580110  0.29655076    -0.41100
O250        O  0.68747816  0.27298360  0.25621188    -0.77800
O251        O  0.71881209  0.26959659  0.28727337    -0.96500
O252        O  0.74058387  0.30969353  0.27285289    -0.89800
O253        O  0.70692619  0.31296096  0.23863327    -0.92600
C254        C  0.73578110  0.20057873  0.23693468     1.01200
C255        C  0.72014949  0.25476088  0.17515088     1.14100
C256        C  0.80030605  0.24930361  0.25433001     1.04900
O257        O  0.76690129  0.24745300  0.31019847    -0.94800
O258        O  0.74734521  0.28934263  0.31885766    -0.90500
O259        O  0.71580562  0.30971691  0.31366852    -0.83600
C260        C  0.73175447  0.30206370  0.32570707     1.11500
O261        O  0.76952590  0.32269197  0.20256881    -0.96700
Zr262      Zr  0.74585162  0.31890894  0.23499259     1.88900
O263        O  0.70630096  0.34337035  0.27619909    -0.73400
O264        O  0.78702591  0.30133585  0.29360518    -0.52600
O265        O  0.78259020  0.33264955  0.24523052    -0.97300
O266        O  0.73192034  0.34721693  0.20961010    -0.54500
O267        O  0.73713430  0.35159962  0.25615597    -0.73900
C268        C  0.72082839  0.35690040  0.26865589     0.98500
O269        O  0.67297427  0.30103617  0.30501986    -0.62700
O270        O  0.66332497  0.25794518  0.20715006    -0.57500
O271        O  0.66576061  0.31700404  0.26356498    -0.94200
O272        O  0.65913896  0.29992291  0.23082997    -0.92600
O273        O  0.67197038  0.22272820  0.25140964    -0.93000
O274        O  0.67835766  0.23404735  0.29490982    -0.91800
C275        C  0.65320781  0.31216892  0.24708942     1.17300
H276        H  0.70625052  0.23649295  0.21869478     0.33200
H277        H  0.71550937  0.26632823  0.30257357     0.44100
H278        H  0.69863080  0.32605862  0.23466603     0.37600
H279        H  0.78000717  0.28731509  0.24174981     0.34100
H280        H  0.71239214  0.20101532  0.29315654     0.25900
H281        H  0.79730160  0.29261158  0.30307476     0.31800
H282        H  0.77991909  0.34710359  0.25213483     0.37700
H283        H  0.67295152  0.20704340  0.25580143     0.32200
H284        H  0.65371729  0.25678405  0.22038165     0.31100
H285        H  0.66830725  0.30465365  0.18476017     0.32700
H286        H  0.71923974  0.35435000  0.21714484     0.31700
H287        H  0.67283825  0.24904587  0.29800542     0.35700
H288        H  0.65990221  0.29428093  0.29771795     0.28400
H289        H  0.78433164  0.23853916  0.19525361     0.32700
H290        H  0.76301914  0.31263795  0.19149225     0.35500
H291        H  0.65441273  0.26665742  0.19638855     0.28100
H292        H  0.67832463  0.28942329  0.31532496     0.41000
H293        H  0.77867335  0.25406973  0.31952662     0.31100
H294        H  0.73461099  0.21438951  0.29461515     0.38700
H295        H  0.72495991  0.33897476  0.19734206     0.30500
H296        H  0.79555987  0.30424528  0.27991654     0.30600
H297        H  0.78854001  0.26390668  0.19761382     0.30900
Zr298      Zr  0.70463132  0.75453684  0.27819319     2.17500
O299        O  0.67504473  0.72772385  0.27248174    -0.51500
O300        O  0.70431596  0.75636512  0.31844885    -0.74700
O301        O  0.71742010  0.71737113  0.28682600    -0.81500
O302        O  0.66325281  0.80148492  0.26861258    -0.83200
O303        O  0.75038075  0.71146180  0.26927689    -0.78900
O304        O  0.66801178  0.76869825  0.28655302    -0.90500
O305        O  0.73015766  0.78135407  0.32915368    -0.76400
O306        O  0.74304183  0.75736642  0.28728817    -0.85900
O307        O  0.71004973  0.79233525  0.28646234    -0.85600
O308        O  0.72398042  0.74300153  0.24561463    -0.72400
O309        O  0.69352290  0.77478733  0.24559403    -0.84500
Zr310      Zr  0.75804014  0.80431261  0.23108562     2.26400
Zr311      Zr  0.76277266  0.74676834  0.25469169     2.06300
Zr312      Zr  0.69963082  0.81268458  0.25389652     2.10000
Zr313      Zr  0.74840609  0.79500989  0.29580225     1.78800
O314        O  0.67286772  0.82313725  0.22523371    -0.93300
O315        O  0.77763516  0.77850706  0.31866199    -0.41100
O316        O  0.73832835  0.81601965  0.26344923    -0.77800
O317        O  0.76937007  0.78446682  0.26377009    -0.96500
O318        O  0.75237176  0.76694955  0.22212238    -0.89800
O319        O  0.71957617  0.80174029  0.22159878    -0.92600
C320        C  0.71459860  0.76748214  0.33333026     1.01200
C321        C  0.65627360  0.78545752  0.28079374     1.14100
C322        C  0.73371298  0.70502233  0.28087874     1.04900
O323        O  0.79034193  0.73678790  0.28269005    -0.94800
O324        O  0.79884928  0.75586506  0.23826511    -0.90500
O325        O  0.79452380  0.78955405  0.22224466    -0.83600
C326        C  0.80598352  0.77225122  0.22674403     1.11500
O327        O  0.68261929  0.73885226  0.20891333    -0.96700
Zr328      Zr  0.71386606  0.76402012  0.21336091     1.88900
O329        O  0.75707000  0.80341013  0.19086692    -0.73400
O330        O  0.77326792  0.71800051  0.22893112    -0.52600
O331        O  0.72629906  0.73038942  0.19561983    -0.97300
O332        O  0.68404588  0.77882812  0.19000175    -0.54500
O333        O  0.73215238  0.77756520  0.18002820    -0.73900
C334        C  0.74719017  0.79201553  0.17596872     0.98500
O335        O  0.78678027  0.83256876  0.23217109    -0.62700
O336        O  0.68554665  0.84030893  0.27923107    -0.57500
O337        O  0.74827464  0.84251754  0.22752103    -0.94200
O338        O  0.71362100  0.84866573  0.24118770    -0.92600
O339        O  0.73706368  0.82718639  0.31661741    -0.93000
O340        O  0.77908144  0.82066494  0.30074693    -0.91800
C341        C  0.73201042  0.85522652  0.23241055     1.17300
H342        H  0.70091840  0.79690214  0.29872723     0.33200
H343        H  0.78502121  0.78682165  0.26670005     0.44100
H344        H  0.71587807  0.81111217  0.20913368     0.37600
H345        H  0.72053087  0.72781450  0.24263983     0.34100
H346        H  0.77709364  0.78669293  0.33274235     0.25900
H347        H  0.78192238  0.70726547  0.23789770     0.31800
H348        H  0.74162448  0.73362291  0.19055438     0.37700
H349        H  0.73220001  0.83795731  0.30522140     0.32200
H350        H  0.69871445  0.84916662  0.28336891     0.31100
H351        H  0.67473451  0.83918246  0.22319284     0.32700
H352        H  0.69108686  0.79013612  0.18048505     0.31700
H353        H  0.78211613  0.82641198  0.28569148     0.35700
H354        H  0.79804933  0.82715726  0.24293105     0.28400
H355        H  0.67377135  0.71958374  0.28667085     0.32700
H356        H  0.68195774  0.73551772  0.19291782     0.35500
H357        H  0.67639535  0.85025920  0.26984117     0.28100
H358        H  0.79423825  0.83203962  0.21760305     0.41000
H359        H  0.79910592  0.72481673  0.27591938     0.31100
H360        H  0.77203765  0.76367555  0.32253615     0.38700
H361        H  0.67451198  0.78726899  0.20020496     0.30500
H362        H  0.75917095  0.71033742  0.22538266     0.30600
H363        H  0.68122883  0.71694783  0.26195386     0.30900
C364        C  0.18741234  0.21749957  0.02992355     0.03000
C365        C  0.16832823  0.20404193  0.02855196    -0.13200
C366        C  0.16127421  0.19506070  0.00828904     0.00500
C367        C  0.17361894  0.19999043  0.98912779    -0.11700
C368        C  0.19290883  0.21316749  0.98993367     0.03000
C369        C  0.19973368  0.22178187  0.01052182    -0.11100
H370        H  0.15924864  0.20014758  0.04351779     0.08600
H371        H  0.16782755  0.19399830  0.97330178     0.06100
H372        H  0.21443852  0.23203366  0.01142044     0.05900
Zr373      Zr  0.21529065  0.25597060  0.78990355     2.17500
O374        O  0.18957445  0.25921157  0.82087911    -0.51500
O375        O  0.21547551  0.21624885  0.78927326    -0.74700
O376        O  0.17690774  0.25080724  0.77884335    -0.81500
O377        O  0.26233499  0.26398899  0.83110919    -0.83200
O378        O  0.17085407  0.26363016  0.74391596    -0.78900
O379        O  0.22823066  0.24815665  0.82690735    -0.90500
O380        O  0.23954899  0.20492204  0.76282570    -0.76400
O381        O  0.21767402  0.24648592  0.75195835    -0.85900
O382        O  0.25327159  0.24622044  0.78439608    -0.85600
O383        O  0.20322926  0.28825672  0.77022878    -0.72400
O384        O  0.23630535  0.28767008  0.80049943    -0.84500
Zr385      Zr  0.26548406  0.30174125  0.73607138     2.26400
Zr386      Zr  0.20669261  0.27888478  0.73186927     2.06300
Zr387      Zr  0.27450970  0.27791217  0.79433007     2.10000
Zr388      Zr  0.25581612  0.23767119  0.74617892     1.78800
O389        O  0.28785056  0.30285014  0.82271919    -0.93300
O390        O  0.23959591  0.21935693  0.71425278    -0.41100
O391        O  0.27752968  0.26933033  0.75576442    -0.77800
O392        O  0.24498107  0.26968124  0.72547172    -0.96500
O393        O  0.22752897  0.31088815  0.74172349    -0.89800
O394        O  0.26312198  0.31034153  0.77435438    -0.92600
C395        C  0.22549313  0.20122805  0.77836106     1.01200
C396        C  0.24528804  0.25328824  0.83855526     1.14100
C397        C  0.16419393  0.25490214  0.76219755     1.04900
O398        O  0.19613825  0.25269520  0.70349858    -0.94800
O399        O  0.21673254  0.29450196  0.69575755    -0.90500
O400        O  0.25000398  0.31189132  0.70025321    -0.83600
C401        C  0.23290259  0.30649563  0.68866751     1.11500
O402        O  0.19709788  0.32393516  0.80867596    -0.96700
Zr403      Zr  0.22504071  0.31965854  0.77984910     1.88900
O404        O  0.26576875  0.34165795  0.73734250    -0.73400
O405        O  0.17822540  0.30606914  0.72263618    -0.52600
O406        O  0.19310070  0.34151465  0.76775006    -0.97300
O407        O  0.24097579  0.34087526  0.81009457    -0.54500
O408        O  0.23922273  0.35239969  0.76166271    -0.73900
C409        C  0.25438001  0.35642618  0.74731979     0.98500
O410        O  0.29077471  0.29677432  0.70493893    -0.62700
O411        O  0.30230417  0.24997735  0.80347884    -0.57500
O412        O  0.30353040  0.30880440  0.74700488    -0.94200
O413        O  0.31051079  0.29218805  0.78024624    -0.92600
O414        O  0.28787797  0.21514733  0.75653012    -0.93000
O415        O  0.28412347  0.23125271  0.71821611    -0.91800
C416        C  0.31658480  0.30331149  0.76297509     1.17300
H417        H  0.25742925  0.23375259  0.79351063     0.33200
H418        H  0.24730095  0.26675531  0.70996934     0.44100
H419        H  0.27274643  0.32250809  0.77800146     0.37600
H420        H  0.18790501  0.29161190  0.77369194     0.34100
H421        H  0.24622832  0.20444505  0.71451603     0.25900
H422        H  0.16643065  0.29774399  0.71487112     0.31800
H423        H  0.19485464  0.34305938  0.75153418     0.37700
H424        H  0.28464786  0.20973374  0.77166156     0.32200
H425        H  0.31175122  0.25679011  0.81499671     0.31100
H426        H  0.29849389  0.29398649  0.83164297     0.32700
H427        H  0.25514436  0.34688601  0.80432779     0.31700
H428        H  0.28842888  0.24612238  0.71305585     0.35700
H429        H  0.30399931  0.28901607  0.71099633     0.28400
H430        H  0.18037878  0.24571396  0.82075069     0.32700
H431        H  0.19713998  0.33975335  0.81239161     0.35500
H432        H  0.29405576  0.23828434  0.81142666     0.28100
H433        H  0.28350418  0.28564198  0.69549193     0.41000
H434        H  0.18297259  0.25938853  0.69614330     0.31100
H435        H  0.22378305  0.21698471  0.71820280     0.38700
H436        H  0.24559377  0.32973148  0.82123647     0.30500
H437        H  0.17152070  0.31000763  0.73700514     0.30600
H438        H  0.17923681  0.27128761  0.81675518     0.30900
Zr439      Zr  0.20377983  0.80245950  0.77859525     2.17500
O440        O  0.17079234  0.80567308  0.80182300    -0.51500
O441        O  0.21195935  0.84134165  0.78230952    -0.74700
O442        O  0.21348082  0.80482190  0.81688790    -0.81500
O443        O  0.16147351  0.79465346  0.73180887    -0.83200
O444        O  0.24875256  0.79268508  0.82301276    -0.78900
O445        O  0.16728775  0.81231216  0.76431044    -0.90500
O446        O  0.23705936  0.85181327  0.75632948    -0.76400
O447        O  0.24229207  0.81056295  0.77517665    -0.85900
O448        O  0.20890477  0.81183036  0.74088258    -0.85600
O449        O  0.22236403  0.76950879  0.79107896    -0.72400
O450        O  0.19172136  0.77039261  0.75924954    -0.84500
Zr451      Zr  0.25530023  0.75512004  0.72847668     2.26400
Zr452      Zr  0.26130169  0.77790109  0.78705284     2.06300
Zr453      Zr  0.19743321  0.77989176  0.72127973     2.10000
Zr454      Zr  0.24761193  0.81888925  0.73702753     1.78800
O455        O  0.16759468  0.75561705  0.70924491    -0.93300
O456        O  0.28279639  0.83632452  0.74667628    -0.41100
O457        O  0.23623679  0.78760267  0.71615882    -0.77800
O458        O  0.26737074  0.78672410  0.74868199    -0.96500
O459        O  0.25063006  0.74583481  0.76657342    -0.89800
O460        O  0.21670871  0.74717247  0.73233183    -0.92600
C461        C  0.22413483  0.85577236  0.77260964     1.01200
C462        C  0.15507294  0.80680668  0.74780154     1.14100
C463        C  0.23013873  0.80103148  0.82961501     1.04900
O464        O  0.28957039  0.80477388  0.79688772    -0.94800
O465        O  0.29725821  0.76219955  0.77575849    -0.90500
O466        O  0.29227154  0.74607039  0.74217125    -0.83600
C467        C  0.30422817  0.75114439  0.75904341     1.11500
O468        O  0.18288343  0.73388538  0.79795959    -0.96700
Zr469      Zr  0.21204490  0.73799252  0.77025261     1.88900
O470        O  0.25158264  0.71575526  0.72667010    -0.73400
O471        O  0.27240065  0.75293229  0.81684882    -0.52600
O472        O  0.22863107  0.71936934  0.80217248    -0.97300
O473        O  0.18026700  0.71510154  0.76023185    -0.54500
O474        O  0.22705622  0.70512560  0.75316389    -0.73900
C475        C  0.24060286  0.70112936  0.73732833     0.98500
O476        O  0.28574275  0.75702169  0.70189333    -0.62700
O477        O  0.18902317  0.80829280  0.69385533    -0.57500
O478        O  0.24222953  0.74958800  0.69092152    -0.94200
O479        O  0.20779880  0.76472656  0.68602671    -0.92600
O480        O  0.23168195  0.84354324  0.70921641    -0.93000
O481        O  0.27256568  0.82171974  0.70550259    -0.91800
C482        C  0.22495963  0.75430484  0.67921557     1.17300
H483        H  0.20015423  0.82456307  0.73669218     0.33200
H484        H  0.28300724  0.78935907  0.74602312     0.44100
H485        H  0.21221379  0.73513338  0.72299719     0.37600
H486        H  0.21887047  0.76603226  0.80627714     0.34100
H487        H  0.28134445  0.85160033  0.74107626     0.25900
H488        H  0.27595394  0.73891953  0.80943008     0.31800
H489        H  0.23032793  0.70386581  0.79763779     0.37700
H490        H  0.24059400  0.85717082  0.71033259     0.32200
H491        H  0.20323025  0.81066019  0.68591985     0.31100
H492        H  0.17225296  0.74075410  0.71419887     0.32700
H493        H  0.18431432  0.70823585  0.74601501     0.31700
H494        H  0.27987546  0.80714873  0.70476351     0.35700
H495        H  0.28553984  0.74273653  0.69416104     0.28400
H496        H  0.17281396  0.81940422  0.81027831     0.32700
H497        H  0.18494814  0.71900846  0.80441596     0.35500
H498        H  0.17921519  0.80101013  0.68294101     0.28100
H499        H  0.28101527  0.76794429  0.69057455     0.41000
H500        H  0.29648660  0.79886171  0.81059999     0.31100
H501        H  0.28236183  0.83769975  0.76297545     0.38700
H502        H  0.16829373  0.72565843  0.75626064     0.30500
H503        H  0.28699530  0.75854429  0.82199011     0.30600
H504        H  0.17197250  0.79366311  0.81291736     0.30900
Zr505      Zr  0.76842778  0.25999076  0.77418068     2.17500
O506        O  0.80164373  0.26146687  0.79753262    -0.51500
O507        O  0.76620318  0.22028488  0.77452869    -0.74700
O508        O  0.75890189  0.25677824  0.81315298    -0.81500
O509        O  0.80889514  0.26595207  0.72572272    -0.83200
O510        O  0.72404107  0.27034311  0.81875841    -0.78900
O511        O  0.80452613  0.25054596  0.75989749    -0.90500
O512        O  0.73851032  0.20976692  0.75122306    -0.76400
O513        O  0.72981729  0.25146018  0.77172293    -0.85900
O514        O  0.76248659  0.25075246  0.73643881    -0.85600
O515        O  0.74989496  0.29285560  0.78570090    -0.72400
O516        O  0.77991529  0.29139600  0.75294004    -0.84500
Zr517      Zr  0.71539859  0.30666408  0.72371695     2.26400
Zr518      Zr  0.71085822  0.28450995  0.78255434     2.06300
Zr519      Zr  0.77299953  0.28229392  0.71504271     2.10000
Zr520      Zr  0.72398430  0.24273761  0.73369749     1.78800
O521        O  0.80129506  0.30891360  0.70426956    -0.93300
O522        O  0.69036397  0.22350274  0.74516372    -0.41100
O523        O  0.73410331  0.27407386  0.71177714    -0.77800
O524        O  0.70415725  0.27484510  0.74455184    -0.96500
O525        O  0.72149166  0.31629469  0.76121378    -0.89800
O526        O  0.75399890  0.31507516  0.72595744    -0.92600
C527        C  0.75435364  0.20564238  0.76492618     1.01200
C528        C  0.81594193  0.25480525  0.74255644     1.14100
C529        C  0.74243807  0.26161945  0.82576315     1.04900
O530        O  0.68187309  0.25955991  0.79528825    -0.94800
O531        O  0.67357618  0.29844025  0.77219758    -0.90500
O532        O  0.67757119  0.31033813  0.73674597    -0.83600
C533        C  0.66574801  0.30640143  0.75392840     1.11500
O534        O  0.79108432  0.32762866  0.78997618    -0.96700
Zr535      Zr  0.76038661  0.32391833  0.76371764     1.88900
O536        O  0.71586190  0.34620907  0.72689866    -0.73400
O537        O  0.70284293  0.31286094  0.80961903    -0.52600
O538        O  0.74839274  0.34381249  0.79640853    -0.97300
O539        O  0.79149400  0.34480355  0.74851253    -0.54500
O540        O  0.74385629  0.35741325  0.74938072    -0.73900
C541        C  0.72722971  0.36117545  0.73654791     0.98500
O542        O  0.68773223  0.30919667  0.69402793    -0.62700
O543        O  0.78341649  0.25696682  0.68581881    -0.57500
O544        O  0.72603323  0.31279231  0.68564607    -0.94200
O545        O  0.75894014  0.29544626  0.67908837    -0.92600
O546        O  0.73855577  0.22062134  0.70361121    -0.93000
O547        O  0.69673959  0.23805703  0.70413615    -0.91800
C548        C  0.74185486  0.30678267  0.67284862     1.17300
H549        H  0.77124679  0.23810827  0.73230911     0.33200
H550        H  0.68862299  0.27149417  0.74215922     0.44100
H551        H  0.75778084  0.32723741  0.71632106     0.37600
H552        H  0.75373722  0.29637257  0.80078464     0.34100
H553        H  0.69373949  0.20773996  0.74296862     0.25900
H554        H  0.69516916  0.32467106  0.80116153     0.31800
H555        H  0.73341597  0.34960167  0.79259497     0.37700
H556        H  0.73067807  0.20638867  0.70491732     0.32200
H557        H  0.79779797  0.26263806  0.68020592     0.31100
H558        H  0.80059443  0.30951990  0.68791302     0.32700
H559        H  0.78535631  0.35279927  0.73551729     0.31700
H560        H  0.69073951  0.25300198  0.70136722     0.35700
H561        H  0.67761585  0.29654157  0.69623717     0.28400
H562        H  0.80072963  0.24858780  0.80760329     0.32700
H563        H  0.79275663  0.34362144  0.79237035     0.35500
H564        H  0.78730918  0.24305029  0.69351897     0.28100
H565        H  0.67859851  0.32240967  0.69703127     0.41000
H566        H  0.67345428  0.26803407  0.80640490     0.31100
H567        H  0.68992618  0.22526586  0.76141970     0.38700
H568        H  0.80148281  0.33356963  0.74214302     0.30500
H569        H  0.69110885  0.30643263  0.81912978     0.30600
H570        H  0.79948451  0.27441279  0.80710564     0.30900
Zr571      Zr  0.75383813  0.80513187  0.77897860     2.17500
O572        O  0.76481146  0.83296653  0.80580202    -0.51500
O573        O  0.79407661  0.80659904  0.77511624    -0.74700
O574        O  0.75633356  0.79152286  0.81662912    -0.81500
O575        O  0.74042152  0.85078519  0.73669617    -0.83200
O576        O  0.74744194  0.75537744  0.81932222    -0.78900
O577        O  0.74999010  0.84424521  0.77248377    -0.90500
O578        O  0.80637923  0.78295668  0.74913337    -0.76400
O579        O  0.76590841  0.76861216  0.77198205    -0.85900
O580        O  0.76222817  0.80453536  0.74062632    -0.85600
O581        O  0.72251791  0.78265111  0.78961062    -0.72400
O582        O  0.71973700  0.81618469  0.76110888    -0.84500
Zr583      Zr  0.70900668  0.75531344  0.72455903     2.26400
Zr584      Zr  0.73480001  0.74587064  0.78184766     2.06300
Zr585      Zr  0.72830218  0.81510711  0.72255576     2.10000
Zr586      Zr  0.77306839  0.76764039  0.73322774     1.78800
O587        O  0.69666060  0.83928467  0.71529850    -0.93300
O588        O  0.79606567  0.73619428  0.74377082    -0.41100
O589        O  0.73972042  0.77829693  0.71399848    -0.77800
O590        O  0.74274969  0.74422200  0.74302696    -0.96500
O591        O  0.70088487  0.75569002  0.76302986    -0.89800
O592        O  0.69744919  0.79198448  0.73175428    -0.92600
C593        C  0.80960630  0.79757290  0.76385540     1.01200
C594        C  0.74649794  0.85723526  0.75601201     1.14100
C595        C  0.75350876  0.77376604  0.82780263     1.04900
O596        O  0.76553075  0.72047121  0.78862158    -0.94800
O597        O  0.72064517  0.71089299  0.76775205    -0.90500
O598        O  0.70111597  0.71789626  0.73605636    -0.83600
C599        C  0.70815245  0.70498900  0.75149335     1.11500
O600        O  0.68371234  0.81747567  0.80054642    -0.96700
Zr601      Zr  0.68914725  0.79220853  0.77000155     1.88900
O602        O  0.66867451  0.75389936  0.72424642    -0.73400
O603        O  0.71243995  0.72834593  0.81050821    -0.52600
O604        O  0.66958516  0.77401357  0.80017572    -0.97300
O605        O  0.66351203  0.82193127  0.76030649    -0.54500
O606        O  0.65699942  0.77397395  0.75350216    -0.73900
C607        C  0.65338618  0.76140361  0.73688681     0.98500
O608        O  0.71612043  0.72836610  0.69572816    -0.62700
O609        O  0.75174273  0.83386455  0.69555852    -0.57500
O610        O  0.69983930  0.77108556  0.68875893    -0.94200
O611        O  0.71519461  0.80522519  0.68591491    -0.92600
O612        O  0.79392661  0.78512662  0.70345377    -0.93000
O613        O  0.77742591  0.74235216  0.70251889    -0.91800
C614        C  0.70451318  0.78878088  0.67806011     1.17300
H615        H  0.77392392  0.81480279  0.73689835     0.33200
H616        H  0.74662523  0.72939815  0.73891175     0.44100
H617        H  0.68449254  0.79596958  0.72302404     0.37600
H618        H  0.71864897  0.78420389  0.80498932     0.34100
H619        H  0.81073351  0.73910824  0.73691063     0.25900
H620        H  0.69851687  0.72378442  0.80300180     0.31800
H621        H  0.67973243  0.76206504  0.80504995     0.37700
H622        H  0.78261395  0.78856967  0.69196089     0.32200
H623        H  0.75630374  0.82233312  0.68503757     0.31100
H624        H  0.70135731  0.84857798  0.70264240     0.32700
H625        H  0.65703039  0.81781466  0.74583770     0.31700
H626        H  0.76385888  0.74451210  0.69337837     0.35700
H627        H  0.72361884  0.73657389  0.68368446     0.28400
H628        H  0.77867968  0.82747329  0.81288919     0.32700
H629        H  0.69893673  0.82224871  0.80466656     0.35500
H630        H  0.74139618  0.84339954  0.68699777     0.28100
H631        H  0.72796426  0.71870002  0.70186119     0.41000
H632        H  0.76650983  0.71162212  0.77499021     0.31100
H633        H  0.79875344  0.73794960  0.75982819     0.38700
H634        H  0.67324274  0.83462868  0.75691800     0.30500
H635        H  0.72033380  0.71441106  0.81392700     0.30600
H636        H  0.75343473  0.83272261  0.81761914     0.30900
C637        C  0.49702251  0.71310990  0.70466022     0.03000
C638        C  0.49535882  0.69710463  0.68811549    -0.13200
C639        C  0.47484744  0.68793244  0.68250906     0.00500
C640        C  0.45564595  0.69433833  0.69372723    -0.11700
C641        C  0.45672768  0.70952934  0.71118362     0.03000
C642        C  0.47758547  0.71908437  0.71638658    -0.11100
H643        H  0.51010698  0.69159332  0.67947123     0.08600
H644        H  0.43983366  0.68735335  0.68872499     0.06100
H645        H  0.47870957  0.73104920  0.72948549     0.05900
C646        C  0.28782830  0.50972389  0.70087249     0.03000
C647        C  0.30301496  0.50933686  0.68332186    -0.13200
C648        C  0.30814362  0.52842701  0.67147270     0.00500
C649        C  0.29772605  0.54818918  0.67701921    -0.11700
C650        C  0.28200127  0.54901806  0.69424914     0.03000
C651        C  0.27707609  0.52955335  0.70605844    -0.11100
H652        H  0.31076926  0.49398863  0.67859062     0.08600
H653        H  0.30265274  0.56304889  0.66838442     0.06100
H654        H  0.26504078  0.52977629  0.71933275     0.05900
C655        C  0.51006546  0.35188473  0.71611686     0.03000
C656        C  0.50949014  0.36615452  0.69774682    -0.13200
C657        C  0.48923722  0.37285892  0.68828686     0.00500
C658        C  0.46926649  0.36546583  0.69776787    -0.11700
C659        C  0.46924898  0.35179719  0.71677834     0.03000
C660        C  0.48991930  0.34499148  0.72582153    -0.11100
H661        H  0.52500178  0.37136672  0.69023619     0.08600
H662        H  0.45364625  0.37034192  0.69013952     0.06100
H663        H  0.49041154  0.33413346  0.74009553     0.05900
C664        C  0.67800981  0.51382905  0.69959099     0.03000
C665        C  0.66565208  0.51557925  0.67981758    -0.13200
C666        C  0.65673599  0.53573236  0.67295629     0.00500
C667        C  0.66111127  0.55451980  0.68527763    -0.11700
C668        C  0.67365020  0.55336052  0.70494705     0.03000
C669        C  0.68221879  0.53289170  0.71198515    -0.11100
H670        H  0.66212210  0.50106414  0.67015399     0.08600
H671        H  0.65447359  0.57010569  0.67945410     0.06100
H672        H  0.69126845  0.53164744  0.72748650     0.05900
C673        C  0.49763861  0.35876945  0.27942161     0.03000
C674        C  0.47726484  0.34945373  0.27219152    -0.13200
C675        C  0.45737512  0.35308054  0.28402669     0.00500
C676        C  0.45783845  0.36664363  0.30273152    -0.11700
C677        C  0.47771868  0.37638415  0.30992885     0.03000
C678        C  0.49746770  0.37204057  0.29842004    -0.11100
H679        H  0.47686140  0.33910164  0.25772102     0.08600
H680        H  0.44247786  0.36990747  0.31148832     0.06100
H681        H  0.51295077  0.37851453  0.30488780     0.05900
C682        C  0.69225829  0.51081754  0.31620186     0.03000
C683        C  0.67337312  0.51170960  0.32984409    -0.13200
C684        C  0.66610719  0.53161721  0.33849384     0.00500
C685        C  0.67767210  0.55084857  0.33350169    -0.11700
C686        C  0.69689779  0.55055402  0.32031332     0.03000
C687        C  0.70423094  0.53029374  0.31165189    -0.11100
H688        H  0.66437123  0.49679339  0.33392266     0.08600
H689        H  0.67119275  0.56625259  0.33965821     0.06100
H690        H  0.71881372  0.52970642  0.30118299     0.05900
C691        C  0.50285694  0.75299295  0.33266402     0.03000
C692        C  0.50302498  0.73323543  0.34496279    -0.13200
C693        C  0.48313607  0.72269494  0.35057093     0.00500
C694        C  0.46283809  0.73169949  0.34356160    -0.11700
C695        C  0.46188664  0.75169785  0.33170486     0.03000
C696        C  0.48213959  0.76213738  0.32603223    -0.11100
H697        H  0.51867402  0.72588450  0.35016576     0.08600
H698        H  0.44768688  0.72285017  0.34743704     0.06100
H699        H  0.48182193  0.77761084  0.31707594     0.05900
C700        C  0.28366680  0.51678591  0.30428387     0.03000
C701        C  0.27379813  0.53600759  0.29530287    -0.13200
C702        C  0.28150571  0.55686709  0.30182350     0.00500
C703        C  0.29894392  0.55845979  0.31725742    -0.11700
C704        C  0.30802775  0.53965327  0.32700624     0.03000
C705        C  0.30026781  0.51897905  0.32062735    -0.11100
H706        H  0.26073335  0.53483333  0.28295256     0.08600
H707        H  0.30478110  0.57447644  0.32244389     0.06100
H708        H  0.30725608  0.50449407  0.32859231     0.05900
C709        C  0.66842823  0.73408875  0.48912444     0.03000
C710        C  0.65591742  0.71475089  0.49175953    -0.13200
C711        C  0.64707727  0.70883352  0.51230591     0.00500
C712        C  0.65157983  0.72188130  0.53073788    -0.11700
C713        C  0.66473336  0.74097182  0.52876976     0.03000
C714        C  0.67311812  0.74696850  0.50782862    -0.11100
H715        H  0.65232295  0.70456745  0.47756499     0.08600
H716        H  0.64497112  0.71693322  0.54666470     0.06100
H717        H  0.68247262  0.76206553  0.50594308     0.05900
C718        C  0.69629668  0.34599602  0.47881000     0.03000
C719        C  0.67748759  0.35979459  0.47827094    -0.13200
C720        C  0.66865361  0.36824661  0.49778000     0.00500
C721        C  0.67834190  0.36235766  0.51808754    -0.11700
C722        C  0.69701961  0.34833737  0.51910639     0.03000
C723        C  0.70582291  0.34003449  0.49927926    -0.11100
H724        H  0.67008535  0.36451895  0.46253848     0.08600
H725        H  0.67106351  0.36861566  0.53315032     0.06100
H726        H  0.72058803  0.32976574  0.49965616     0.05900
C727        C  0.27552619  0.71552873  0.48968430     0.03000
C728        C  0.29255630  0.69970466  0.49033197    -0.13200
C729        C  0.29894082  0.68975782  0.51025384     0.00500
C730        C  0.28782863  0.69510253  0.52973795    -0.11700
C731        C  0.27025908  0.71041282  0.52944591     0.03000
C732        C  0.26418364  0.72057124  0.50929244    -0.11100
H733        H  0.30098145  0.69500140  0.47527171     0.08600
H734        H  0.29341736  0.68779693  0.54520587     0.06100
H735        H  0.25090820  0.73263635  0.50893488     0.05900
C736        C  0.26412253  0.35210832  0.49275134     0.03000
C737        C  0.28311683  0.36556866  0.49215040    -0.13200
C738        C  0.29379448  0.37239605  0.51158347     0.00500
C739        C  0.28522842  0.36556037  0.53206871    -0.11700
C740        C  0.26582283  0.35249345  0.53340592     0.03000
C741        C  0.25556899  0.34551001  0.51350998    -0.11100
H742        H  0.29004998  0.37033443  0.47630479     0.08600
H743        H  0.29365987  0.37066654  0.54703770     0.06100
H744        H  0.24064456  0.33555369  0.51411745     0.05900
O745        O  0.91831550  0.98997935  0.00115404    -0.86600
O746        O  0.04476239  0.99649350  0.00737932    -0.86800
O747        O  0.98385987  0.96875194  0.96598617    -0.88500
O748        O  0.98399314  0.96493363  0.03835181    -0.87200
O749        O  0.97901711  0.98968845  0.06637864    -0.86800
O750        O  0.98566641  0.99735508  0.94110996    -0.88200
O751        O  0.01968482  0.96827909  0.00380761    -0.86700
O752        O  0.94692026  0.96486440  0.00295944    -0.86300
Zr753      Zr  0.98228515  0.98453094  0.00314772     2.84300
O754        O  0.00201821  0.00672509  0.02772902    -1.08200
O755        O  0.95971746  0.00663205  0.98035459    -1.09000
C756        C  0.92603073  0.97007233  0.00212391     1.06500
C757        C  0.03970541  0.97597190  0.00564686     1.06400
C758        C  0.98540383  0.97671757  0.94611960     1.09400
C759        C  0.98217926  0.97002016  0.05897277     1.07200
H760        H  0.01502689  0.00073872  0.97428398     0.32700
O761        O  0.00487263  0.00889197  0.98339646    -1.29200
H762        H  0.94819790  0.99468349  0.03356804     0.32400
O763        O  0.95733948  0.00446525  0.02514588    -1.30900
O764        O  0.04146750  0.06745398  0.00827786    -0.86600
O765        O  0.91498138  0.06183502  0.00346877    -0.88100
O766        O  0.01893064  0.03402529  0.94474806    -0.86700
O767        O  0.01246074  0.02583106  0.06992912    -0.86800
O768        O  0.93996719  0.02623606  0.06537267    -0.86500
O769        O  0.94793971  0.03089631  0.94021041    -0.86300
O770        O  0.97975305  0.09347134  0.97176899    -0.86700
O771        O  0.97615023  0.08947238  0.04451165    -0.86100
O772        O  0.98402907  0.06755806  0.94467104    -0.87200
O773        O  0.97431346  0.06101716  0.06969105    -0.86300
O774        O  0.04447756  0.03295060  0.97308381    -0.86700
O775        O  0.91929409  0.02689085  0.96487384    -0.86500
O776        O  0.91485691  0.02588839  0.03663750    -0.86100
O777        O  0.04093686  0.02733021  0.04472533    -0.86500
O778        O  0.01368753  0.09347739  0.00887784    -0.86800
O779        O  0.94058461  0.08976735  0.00600785    -0.88200
Zr780      Zr  0.02458532  0.03106474  0.00801596     2.83100
Zr781      Zr  0.93513291  0.02683599  0.00216819     2.83500
Zr782      Zr  0.98240495  0.03143972  0.96127556     2.84100
Zr783      Zr  0.97733265  0.02656282  0.04968173     2.83400
Zr784      Zr  0.97798556  0.07376631  0.00733870     2.84200
O785        O  0.95534601  0.04891276  0.02670693    -1.08700
O786        O  0.00252197  0.05357116  0.98551301    -1.08200
C787        C  0.03442348  0.08754010  0.00836389     1.06400
C788        C  0.92040274  0.08236959  0.00481528     1.09000
C789        C  0.03899552  0.03378778  0.95241085     1.06600
C790        C  0.03327936  0.02571087  0.06459703     1.07000
C791        C  0.91995732  0.02620215  0.05737176     1.06500
C792        C  0.92715392  0.02864276  0.94505253     1.06100
C793        C  0.98256600  0.08749258  0.95146574     1.06500
C794        C  0.97473067  0.08162850  0.06442942     1.06000
H795        H  0.94842645  0.06093891  0.97311897     0.32700
O796        O  0.95757226  0.05176170  0.98264827    -1.29800
H797        H  0.00881233  0.06010193  0.04040919     0.32700
O798        O  0.00026312  0.05124778  0.03023998    -1.31200
O799        O  0.47880538  0.58798328  0.53953603    -0.86600
O800        O  0.48524249  0.46328360  0.53321633    -0.86800
O801        O  0.44615654  0.52368645  0.56200214    -0.88500
O802        O  0.51857849  0.52620698  0.56277666    -0.87200
O803        O  0.54557772  0.52736559  0.53606315    -0.86800
O804        O  0.41931540  0.52540919  0.53488596    -0.88200
O805        O  0.48528799  0.48930846  0.56053752    -0.86700
O806        O  0.47998352  0.55946685  0.56453671    -0.86300
Zr807      Zr  0.48244654  0.52541356  0.54415306     2.84300
O808        O  0.50549385  0.50513965  0.52090749    -1.08200
O809        O  0.45923344  0.54820920  0.52319359    -1.09000
C810        C  0.47867262  0.58005354  0.55941630     1.06500
C811        C  0.48612951  0.46933494  0.55373465     1.06400
C812        C  0.42568710  0.52442463  0.55528773     1.09400
C813        C  0.53910819  0.52676524  0.55640212     1.07200
H814        H  0.45149045  0.49395277  0.52971533     0.32700
O815        O  0.46053272  0.50372613  0.52086282    -1.29200
H816        H  0.51326960  0.55868426  0.53373029     0.32400
O817        O  0.50435309  0.54987914  0.52386638    -1.30900
O818        O  0.48156634  0.46860224  0.45988896    -0.86600
O819        O  0.48129385  0.59323496  0.46836140    -0.88100
O820        O  0.42027933  0.49110517  0.49741424    -0.86700
O821        O  0.54691060  0.49509877  0.49899888    -0.86800
O822        O  0.54450206  0.56595922  0.50228552    -0.86500
O823        O  0.41833037  0.56172446  0.50294795    -0.86300
O824        O  0.44657627  0.53317387  0.43677184    -0.86700
O825        O  0.51867661  0.53311351  0.43703412    -0.86100
O826        O  0.41968595  0.52884493  0.46329995    -0.87200
O827        O  0.54524812  0.53250296  0.46441848    -0.86300
O828        O  0.44733233  0.46433838  0.49830723    -0.86700
O829        O  0.44423890  0.58938774  0.50381601    -0.86500
O830        O  0.51649194  0.59153413  0.50445479    -0.86100
O831        O  0.52128735  0.46719713  0.49648742    -0.86500
O832        O  0.48231497  0.49758892  0.43521146    -0.86800
O833        O  0.48351716  0.56916607  0.43944224    -0.88200
Zr834      Zr  0.48362602  0.48334362  0.49751810     2.83100
Zr835      Zr  0.48098727  0.57249207  0.50265985     2.83500
Zr836      Zr  0.43786538  0.52690669  0.49931336     2.84100
Zr837      Zr  0.52710112  0.52971390  0.50020065     2.83400
Zr838      Zr  0.48266783  0.53182136  0.45536222     2.84200
O839        O  0.50445287  0.55303971  0.47904480    -1.08700
O840        O  0.46109322  0.50695431  0.47603054    -1.08200
C841        C  0.48156972  0.47691983  0.44008378     1.06400
C842        C  0.48247461  0.58876780  0.44758658     1.09000
C843        C  0.42674083  0.47086766  0.49782278     1.06600
C844        C  0.54150430  0.47465708  0.49761095     1.07000
C845        C  0.53724824  0.58591356  0.50396277     1.06500
C846        C  0.42402931  0.58213055  0.50420501     1.06100
C847        C  0.42609935  0.53161811  0.44310099     1.06500
C848        C  0.53906271  0.53342451  0.44393719     1.06000
H849        H  0.44958458  0.56131742  0.46990937     0.32700
O850        O  0.45913368  0.55170827  0.47853712    -1.29800
H851        H  0.51491426  0.49987926  0.46683226     0.32700
O852        O  0.50535169  0.50811439  0.47656405    -1.31200
C853        C  0.39045417  0.40500822  0.53044253    -0.18000
C854        C  0.37144694  0.39187654  0.53312393    -0.20200
C855        C  0.35205786  0.39605053  0.52064112     0.20500
C856        C  0.35188072  0.41366348  0.50529488    -0.03100
C857        C  0.37102863  0.42693611  0.50262181    -0.06100
C858        C  0.39045312  0.42259305  0.51523506     0.20800
C859        C  0.37061729  0.44470656  0.48748511     0.18900
C860        C  0.35129196  0.44892598  0.47499183    -0.17600
C861        C  0.33243428  0.43571036  0.47751767    -0.19800
C862        C  0.33254706  0.41808742  0.49262831     0.20400
C863        C  0.31367289  0.40477896  0.49516608    -0.32900
C864        C  0.31370759  0.38696617  0.51015990     0.01100
C865        C  0.33292536  0.38286458  0.52306458    -0.24200
C866        C  0.40928539  0.43621141  0.51273955    -0.28800
C867        C  0.40866076  0.45433279  0.49812164     0.06800
C868        C  0.38934510  0.45827004  0.48541921    -0.27400
H869        H  0.40513919  0.40146193  0.54035218     0.11500
H870        H  0.37192025  0.37843307  0.54498068     0.12600
H871        H  0.35072955  0.46252343  0.46331037     0.11700
H872        H  0.31772101  0.43930999  0.46766768     0.11000
H873        H  0.29885015  0.40829797  0.48542914     0.16300
H874        H  0.33316693  0.36910528  0.53456384     0.12300
H875        H  0.42399732  0.43333974  0.52284467     0.15100
H876        H  0.38877560  0.47224528  0.47417034     0.14900
C877        C  0.34714058  0.60111461  0.52547993    -0.18000
C878        C  0.32963580  0.61625079  0.52652060    -0.20200
C879        C  0.33249540  0.63779687  0.51864086     0.20500
C880        C  0.35327014  0.64426826  0.50984801    -0.03100
C881        C  0.37098258  0.62907468  0.50901520    -0.06100
C882        C  0.36779731  0.60733602  0.51664284     0.20800
C883        C  0.39177173  0.63556442  0.50030554     0.18900
C884        C  0.39467132  0.65715527  0.49253494    -0.17600
C885        C  0.37702045  0.67215589  0.49311208    -0.19800
C886        C  0.35627458  0.66583952  0.50164826     0.20400
C887        C  0.33841210  0.68063958  0.50196180    -0.32900
C888        C  0.31774161  0.67422768  0.51064407     0.01100
C889        C  0.31489484  0.65292380  0.51916561    -0.24200
C890        C  0.38524169  0.59213012  0.51506970    -0.28800
C891        C  0.40593768  0.59842812  0.50623891     0.06800
C892        C  0.40918715  0.62025982  0.49920313    -0.27400
H893        H  0.34448759  0.58450138  0.53148075     0.11500
H894        H  0.31379801  0.61105147  0.53331168     0.12600
H895        H  0.41052425  0.66237045  0.48578660     0.11700
H896        H  0.37956853  0.68867654  0.48680553     0.11000
H897        H  0.34052969  0.69718903  0.49551851     0.16300
H898        H  0.29883072  0.64804251  0.52570698     0.12300
H899        H  0.38272598  0.57538834  0.52079687     0.15100
H900        H  0.42509263  0.62520137  0.49233927     0.14900
C901        C  0.59201786  0.38869371  0.47505736    -0.18000
C902        C  0.57407899  0.40341735  0.47540702    -0.20200
C903        C  0.57604726  0.42365793  0.48618672     0.20500
C904        C  0.59642383  0.42925740  0.49646053    -0.03100
C905        C  0.61445804  0.41433511  0.49626958    -0.06100
C906        C  0.61220157  0.39390944  0.48558239     0.20800
C907        C  0.63467445  0.41979778  0.50690654     0.18900
C908        C  0.63689274  0.44029383  0.51713206    -0.17600
C909        C  0.61908576  0.45514932  0.51716550    -0.19800
C910        C  0.59875628  0.44970784  0.50702846     0.20400
C911        C  0.58071028  0.46434468  0.50731100    -0.32900
C912        C  0.56021915  0.45877871  0.49736375     0.01100
C913        C  0.55801574  0.43838102  0.48686212    -0.24200
C914        C  0.63009258  0.37900522  0.48580855    -0.28800
C915        C  0.65000154  0.38414245  0.49693487     0.06800
C916        C  0.65224397  0.40460005  0.50728938    -0.27400
H917        H  0.59003708  0.37313097  0.46670623     0.11500
H918        H  0.55862076  0.39893460  0.46729928     0.12600
H919        H  0.65236484  0.44478558  0.52521581     0.11700
H920        H  0.62116183  0.47083972  0.52526295     0.11000
H921        H  0.58255239  0.48002037  0.51552177     0.16300
H922        H  0.54238939  0.43412016  0.47892920     0.12300
H923        H  0.62841730  0.36322918  0.47776930     0.15100
H924        H  0.66775723  0.40867499  0.51555546     0.14900
C925        C  0.61424026  0.61401295  0.49574098    -0.18000
C926        C  0.62974502  0.63105984  0.49752071    -0.20200
C927        C  0.62320706  0.65173996  0.50532007     0.20500
C928        C  0.60083215  0.65526876  0.51150129    -0.03100
C929        C  0.58518119  0.63807569  0.50965838    -0.06100
C930        C  0.59193269  0.61734186  0.50176058     0.20800
C931        C  0.56275968  0.64170971  0.51552147     0.18900
C932        C  0.55616824  0.66242089  0.52320708    -0.17600
C933        C  0.57165697  0.67946930  0.52498945    -0.19800
C934        C  0.59401088  0.67607065  0.51918196     0.20400
C935        C  0.60955468  0.69322142  0.52044075    -0.32900
C936        C  0.63171726  0.68991491  0.51382623     0.01100
C937        C  0.63850311  0.66910561  0.50651679    -0.24200
C938        C  0.57626226  0.60033950  0.49994005    -0.28800
C939        C  0.55385816  0.60382800  0.50577421     0.06800
C940        C  0.54728518  0.62461961  0.51351677    -0.27400
H941        H  0.61968745  0.59823278  0.48956775     0.11500
H942        H  0.64683755  0.62811036  0.49264095     0.12600
H943        H  0.53899335  0.66546780  0.52774999     0.11700
H944        H  0.56612287  0.69535574  0.53080718     0.11000
H945        H  0.60426275  0.70938921  0.52573331     0.16300
H946        H  0.65559514  0.66663391  0.50132861     0.12300
H947        H  0.58148819  0.58445981  0.49380847     0.15100
H948        H  0.53010702  0.62751048  0.51817954     0.14900
C949        C  0.39936734  0.55965751  0.37059740    -0.18000
C950        C  0.38248465  0.56168867  0.35462186    -0.20200
C951        C  0.36159736  0.55189061  0.35806628     0.20500
C952        C  0.35745939  0.54063296  0.37816291    -0.03100
C953        C  0.37438047  0.53878072  0.39432923    -0.06100
C954        C  0.39557250  0.54796219  0.39034793     0.20800
C955        C  0.37019066  0.52734377  0.41429103     0.18900
C956        C  0.34907920  0.51828213  0.41813294    -0.17600
C957        C  0.33241355  0.51988895  0.40202468    -0.19800
C958        C  0.33657896  0.53068039  0.38190209     0.20400
C959        C  0.32042215  0.53107097  0.36521648    -0.32900
C960        C  0.32470317  0.54140459  0.34488684     0.01100
C961        C  0.34500353  0.55245398  0.34157354    -0.24200
C962        C  0.41257698  0.54518134  0.40614916    -0.28800
C963        C  0.40850421  0.53369860  0.42603751     0.06800
C964        C  0.38721521  0.52497381  0.43001473    -0.27400
H965        H  0.41547534  0.56702358  0.36739803     0.11500
H966        H  0.38591794  0.57052409  0.33938365     0.12600
H967        H  0.34557222  0.50961670  0.43345279     0.11700
H968        H  0.31636671  0.51237044  0.40515929     0.11000
H969        H  0.30456324  0.52295230  0.36783643     0.16300
H970        H  0.34818135  0.56058722  0.32587766     0.12300
H971        H  0.42886407  0.55225108  0.40312356     0.15100
H972        H  0.38393987  0.51610432  0.44528770     0.14900
C973        C  0.50536830  0.62657782  0.37814761    -0.18000
C974        C  0.50581605  0.64552403  0.36481997    -0.20200
C975        C  0.49461496  0.66467442  0.37133451     0.20500
C976        C  0.48280111  0.66471238  0.39147969    -0.03100
C977        C  0.48254301  0.64568946  0.40501359    -0.06100
C978        C  0.49380724  0.62646840  0.39829579     0.20800
C979        C  0.47105071  0.64595609  0.42530097     0.18900
C980        C  0.45971754  0.66501270  0.43180010    -0.17600
C981        C  0.45974981  0.68374673  0.41828984    -0.19800
C982        C  0.47125840  0.68377303  0.39814757     0.20400
C983        C  0.47143576  0.70253734  0.38457695    -0.32900
C984        C  0.48329724  0.70267569  0.36460577     0.01100
C985        C  0.49497197  0.68377409  0.35810116    -0.24200
C986        C  0.49340346  0.60758897  0.41192244    -0.28800
C987        C  0.48222479  0.60793222  0.43233171     0.06800
C988        C  0.47111516  0.62720232  0.43882266    -0.27400
H989        H  0.51414687  0.61202382  0.37272721     0.11500
H990        H  0.51491580  0.64518853  0.34938641     0.12600
H991        H  0.45078969  0.66541569  0.44733732     0.11700
H992        H  0.45083412  0.69825098  0.42363712     0.11000
H993        H  0.46254154  0.71718730  0.38961903     0.16300
H994        H  0.50400052  0.68388773  0.34260673     0.12300
H995        H  0.50216802  0.59286126  0.40692286     0.15100
H996        H  0.46231676  0.62756580  0.45445042     0.14900
C997        C  0.56829227  0.51947653  0.36882599    -0.18000
C998        C  0.58634979  0.51849040  0.35426260    -0.20200
C999        C  0.60747154  0.52596306  0.36084106     0.20500
C1000       C  0.61029387  0.53500734  0.38210656    -0.03100
C1001       C  0.59222133  0.53564457  0.39688797    -0.06100
C1002       C  0.57114450  0.52768798  0.39029501     0.20800
C1003       C  0.59539827  0.54384670  0.41842878     0.18900
C1004       C  0.61624666  0.55212076  0.42474768    -0.17600
C1005       C  0.63403540  0.55186883  0.40997454    -0.19800
C1006       C  0.63129141  0.54308906  0.38878021     0.20400
C1007       C  0.64928320  0.54201450  0.37426066    -0.32900
C1008       C  0.64675537  0.53252769  0.35335166     0.01100
C1009       C  0.62587277  0.52447781  0.34666083    -0.24200
C1010       C  0.55350025  0.52761124  0.40548492    -0.28800
C1011       C  0.55690685  0.53493248  0.42727131     0.06800
C1012       C  0.57781092  0.54328845  0.43346404    -0.27400
H1013       H  0.55219767  0.51342929  0.36344319     0.11500
H1014       H  0.58383524  0.51173069  0.33791669     0.12600
H1015       H  0.61884649  0.55861279  0.44119489     0.11700
H1016       H  0.65004456  0.55821386  0.41525182     0.11000
H1017       H  0.66544796  0.54819344  0.37933555     0.16300
H1018       H  0.62395754  0.51739053  0.33036643     0.12300
H1019       H  0.53739405  0.52116586  0.40060043     0.15100
H1020       H  0.58045453  0.54930478  0.45010565     0.14900
C1021       C  0.50430102  0.45826321  0.36443510    -0.18000
C1022       C  0.50382941  0.44420647  0.34627506    -0.20200
C1023       C  0.49108369  0.42490108  0.34689659     0.20500
C1024       C  0.47861199  0.41972614  0.36597128    -0.03100
C1025       C  0.47913259  0.43389112  0.38434391    -0.06100
C1026       C  0.49205839  0.45322256  0.38352074     0.20800
C1027       C  0.46687520  0.42863187  0.40356366     0.18900
C1028       C  0.45389292  0.40947658  0.40404445    -0.17600
C1029       C  0.45336272  0.39544062  0.38581155    -0.19800
C1030       C  0.46574955  0.40034757  0.36674811     0.20400
C1031       C  0.46556266  0.38620666  0.34848870    -0.32900
C1032       C  0.47797455  0.39124500  0.32938651     0.01100
C1033       C  0.49063896  0.41068844  0.32877368    -0.24200
C1034       C  0.49264531  0.46711890  0.40183980    -0.28800
C1035       C  0.48082850  0.46179909  0.42117443     0.06800
C1036       C  0.46794761  0.44255184  0.42196457    -0.27400
H1037       H  0.51433338  0.47303585  0.36359232     0.11500
H1038       H  0.51349992  0.44840457  0.33175384     0.12600
H1039       H  0.44426006  0.40526665  0.41858792     0.11700
H1040       H  0.44332484  0.38068038  0.38665930     0.11000
H1041       H  0.45596774  0.37114964  0.34924031     0.16300
H1042       H  0.49998712  0.41489740  0.31403605     0.12300
H1043       H  0.50260294  0.48196958  0.40119451     0.15100
H1044       H  0.45854622  0.43861604  0.43674843     0.14900
C1045       C  0.61749811  0.51678379  0.58016114    -0.18000
C1046       C  0.63422055  0.51864223  0.59624500    -0.20200
C1047       C  0.62930263  0.52719827  0.61714860     0.20500
C1048       C  0.60740035  0.53434660  0.62174794    -0.03100
C1049       C  0.59047430  0.53213144  0.60567086    -0.06100
C1050       C  0.59555400  0.52329037  0.58478643     0.20800
C1051       C  0.56844510  0.53859952  0.61057785     0.18900
C1052       C  0.56364381  0.54775118  0.63124330    -0.17600
C1053       C  0.58046882  0.55020405  0.64707578    -0.19800
C1054       C  0.60229277  0.54332228  0.64256875     0.20400
C1055       C  0.61893922  0.54466344  0.65875629    -0.32900
C1056       C  0.64047214  0.53666840  0.65462399     0.01100
C1057       C  0.64570043  0.52822291  0.63373541    -0.24200
C1058       C  0.57861942  0.52120194  0.56888025    -0.28800
C1059       C  0.55660461  0.52757304  0.57368082     0.06800
C1060       C  0.55162677  0.53600191  0.59467700    -0.27400
H1061       H  0.62168151  0.51004455  0.56416897     0.11500
H1062       H  0.65096083  0.51321576  0.59239648     0.12600
H1063       H  0.54685451  0.55296854  0.63518135     0.11700
H1064       H  0.57634059  0.55718168  0.66297736     0.11000
H1065       H  0.61492203  0.55102062  0.67497090     0.16300
H1066       H  0.66239116  0.52217970  0.63058810     0.12300
H1067       H  0.58257752  0.51461651  0.55275291     0.15100
H1068       H  0.53476977  0.54118250  0.59843253     0.14900
C1069       C  0.46153606  0.40197734  0.59322743    -0.18000
C1070       C  0.46132044  0.38915452  0.61258280    -0.20200
C1071       C  0.47522258  0.39436550  0.63053583     0.20500
C1072       C  0.48966151  0.41255770  0.62889912    -0.03100
C1073       C  0.48978315  0.42557118  0.60943300    -0.06100
C1074       C  0.47560328  0.42030799  0.59148846     0.20800
C1075       C  0.50383974  0.44405528  0.60809281     0.18900
C1076       C  0.51797533  0.44913584  0.62588085    -0.17600
C1077       C  0.51805325  0.43609492  0.64502724    -0.19800
C1078       C  0.50385704  0.41786924  0.64677005     0.20400
C1079       C  0.50354430  0.40493268  0.66609667    -0.32900
C1080       C  0.48908924  0.38682171  0.66794258     0.01100
C1081       C  0.47495442  0.38169634  0.65006471    -0.24200
C1082       C  0.47533293  0.43381907  0.57243803    -0.28800
C1083       C  0.48873217  0.45270815  0.57147855     0.06800
C1084       C  0.50314511  0.45747480  0.58921540    -0.27400
H1085       H  0.45052087  0.39767855  0.57969392     0.11500
H1086       H  0.45018901  0.37518560  0.61354454     0.12600
H1087       H  0.52888316  0.46329070  0.62503544     0.11700
H1088       H  0.52908419  0.44038117  0.65855490     0.11000
H1089       H  0.51438169  0.40909344  0.67983191     0.16300
H1090       H  0.46403626  0.36756853  0.65120373     0.12300
H1091       H  0.46397809  0.43029976  0.55892655     0.15100
H1092       H  0.51350712  0.47205542  0.58848860     0.14900
C1093       C  0.39944293  0.50609628  0.63042074    -0.18000
C1094       C  0.38290662  0.50660983  0.64660038    -0.20200
C1095       C  0.36229017  0.51664615  0.64213942     0.20500
C1096       C  0.35815772  0.52613598  0.62114582    -0.03100
C1097       C  0.37479559  0.52550092  0.60477967    -0.06100
C1098       C  0.39557467  0.51553673  0.60950794     0.20800
C1099       C  0.37067191  0.53490602  0.58374824     0.18900
C1100       C  0.35002119  0.54491310  0.57928200    -0.17600
C1101       C  0.33354065  0.54562041  0.59555361    -0.19800
C1102       C  0.33746151  0.53633923  0.61654464     0.20400
C1103       C  0.32113187  0.53714122  0.63305855    -0.32900
C1104       C  0.32524012  0.52772778  0.65398895     0.01100
C1105       C  0.34578928  0.51745348  0.65836745    -0.24200
C1106       C  0.41214108  0.51522591  0.59326844    -0.28800
C1107       C  0.40810639  0.52447414  0.57225656     0.06800
C1108       C  0.38730050  0.53420680  0.56758707    -0.27400
H1109       H  0.41527482  0.49833391  0.63427437     0.11500
H1110       H  0.38627605  0.49923342  0.66264815     0.12600
H1111       H  0.34663630  0.55224014  0.56321353     0.11700
H1112       H  0.31774702  0.55347458  0.59173686     0.11000
H1113       H  0.30517961  0.54488223  0.62962702     0.16300
H1114       H  0.34902064  0.51035157  0.67458221     0.12300
H1115       H  0.42811272  0.50761962  0.59691858     0.15100
H1116       H  0.38417565  0.54158795  0.55147917     0.14900
C1117       C  0.49010752  0.59816451  0.63798754    -0.18000
C1118       C  0.48965089  0.61329800  0.65524851    -0.20200
C1119       C  0.48171123  0.63472509  0.65156054     0.20500
C1120       C  0.47395324  0.64093481  0.63031508    -0.03100
C1121       C  0.47461444  0.62572944  0.61285945    -0.06100
C1122       C  0.48277022  0.60427193  0.61674031     0.20800
C1123       C  0.46735949  0.63208108  0.59149842     0.18900
C1124       C  0.45909629  0.65339957  0.58787906    -0.17600
C1125       C  0.45829392  0.66844006  0.60522331    -0.19800
C1126       C  0.46580297  0.66242068  0.62644327     0.20400
C1127       C  0.46558719  0.67756512  0.64380074    -0.32900
C1128       C  0.47366998  0.67152998  0.66479584     0.01100
C1129       C  0.48163884  0.65014790  0.66865153    -0.24200
C1130       C  0.48372408  0.58937590  0.59925770    -0.28800
C1131       C  0.47697338  0.59572579  0.57782658     0.06800
C1132       C  0.46869092  0.61707828  0.57409878    -0.27400
H1133       H  0.49640996  0.58173955  0.64120545     0.11500
H1134       H  0.49561128  0.60827480  0.67146568     0.12600
H1135       H  0.45337272  0.65848602  0.57159486     0.11700
H1136       H  0.45197284  0.68485051  0.60199606     0.11000
H1137       H  0.45961452  0.69417932  0.64093438     0.16300
H1138       H  0.48789858  0.64564658  0.68492785     0.12300
H1139       H  0.49017771  0.57296011  0.60227271     0.15100
H1140       H  0.46320508  0.62201269  0.55767637     0.14900
C1141       C  0.64117782  0.76764950  0.60167372    -0.18000
C1142       C  0.64675966  0.77451071  0.62296567    -0.20200
C1143       C  0.66870651  0.78060847  0.62798935     0.20500
C1144       C  0.68494369  0.78104333  0.61115050    -0.03100
C1145       C  0.67937616  0.77379028  0.58973305    -0.06100
C1146       C  0.65751700  0.76657895  0.58518682     0.20800
C1147       C  0.69594018  0.77257817  0.57327067     0.18900
C1148       C  0.71760136  0.77994647  0.57802733    -0.17600
C1149       C  0.72308881  0.78736321  0.59923351    -0.19800
C1150       C  0.70704977  0.78736159  0.61606354     0.20400
C1151       C  0.71299480  0.79208897  0.63799738    -0.32900
C1152       C  0.69725185  0.78972890  0.65494423     0.01100
C1153       C  0.67502576  0.78483983  0.64981774    -0.24200
C1154       C  0.65261188  0.75731522  0.56464114    -0.28800
C1155       C  0.66936872  0.75444511  0.54871090     0.06800
C1156       C  0.69082040  0.76293260  0.55280760    -0.27400
H1157       H  0.62427812  0.76232857  0.59834574     0.11500
H1158       H  0.63409176  0.77431424  0.63568996     0.12600
H1159       H  0.73048105  0.77933074  0.56554320     0.11700
H1160       H  0.74009104  0.79228467  0.60269164     0.11000
H1161       H  0.73018361  0.79578450  0.64214018     0.16300
H1162       H  0.66295213  0.78317357  0.66303375     0.12300
H1163       H  0.63586797  0.75147964  0.56138042     0.15100
H1164       H  0.70383856  0.76089560  0.54062045     0.14900
C1165       C  0.64804482  0.62714973  0.72515278    -0.18000
C1166       C  0.65312212  0.64879848  0.73076132    -0.20200
C1167       C  0.67455536  0.65426579  0.73824243     0.20500
C1168       C  0.69081153  0.63763448  0.74088683    -0.03100
C1169       C  0.68585071  0.61587292  0.73467710    -0.06100
C1170       C  0.66446093  0.61074389  0.72650505     0.20800
C1171       C  0.70252560  0.59948457  0.73580091     0.18900
C1172       C  0.72358195  0.60473420  0.74446073    -0.17600
C1173       C  0.72835732  0.62622495  0.75110702    -0.19800
C1174       C  0.71226501  0.64290548  0.74889895     0.20400
C1175       C  0.71746001  0.66487957  0.75372806    -0.32900
C1176       C  0.70171092  0.68164562  0.74984651     0.01100
C1177       C  0.68021593  0.67616812  0.74243427    -0.24200
C1178       C  0.66015127  0.58959801  0.71875757    -0.28800
C1179       C  0.67724169  0.57374761  0.71783189     0.06800
C1180       C  0.69816380  0.57850699  0.72723948    -0.27400
H1181       H  0.63150122  0.62339654  0.71900454     0.11500
H1182       H  0.64039657  0.66134144  0.72887350     0.12600
H1183       H  0.73651484  0.59232414  0.74566355     0.11700
H1184       H  0.74486538  0.62993720  0.75735663     0.11000
H1185       H  0.73410088  0.66910168  0.75929492     0.16300
H1186       H  0.66800791  0.68906411  0.73958133     0.12300
H1187       H  0.64369896  0.58582018  0.71236478     0.15100
H1188       H  0.71139995  0.56637745  0.72675953     0.14900
C1189       C  0.55532995  0.73707161  0.75784799    -0.18000
C1190       C  0.57725418  0.74359467  0.76228469    -0.20200
C1191       C  0.59256327  0.74639724  0.74500365     0.20500
C1192       C  0.58569890  0.74265357  0.72300644    -0.03100
C1193       C  0.56344427  0.73648403  0.71849911    -0.06100
C1194       C  0.54822125  0.73349661  0.73602145     0.20800
C1195       C  0.55648760  0.73318638  0.69648349     0.18900
C1196       C  0.57180751  0.73590004  0.67918062    -0.17600
C1197       C  0.59394587  0.74160183  0.68367095    -0.19800
C1198       C  0.60106084  0.74503114  0.70551769     0.20400
C1199       C  0.62321127  0.75089418  0.71018059    -0.32900
C1200       C  0.63006657  0.75503176  0.73204965     0.01100
C1201       C  0.61460121  0.75284080  0.74934373    -0.24200
C1202       C  0.52631548  0.72659437  0.73145796    -0.28800
C1203       C  0.51933716  0.72283785  0.70955039     0.06800
C1204       C  0.53445705  0.72682795  0.69215613    -0.27400
H1205       H  0.54391284  0.73484394  0.77151317     0.11500
H1206       H  0.58227590  0.74633337  0.77927602     0.12600
H1207       H  0.56672356  0.73337287  0.66216962     0.11700
H1208       H  0.60548481  0.74341672  0.67003942     0.11000
H1209       H  0.63502192  0.75264533  0.69675493     0.16300
H1210       H  0.61984685  0.75577235  0.76624776     0.12300
H1211       H  0.51497286  0.72344157  0.74500876     0.15100
H1212       H  0.52919846  0.72454499  0.67515479     0.14900
C1213       C  0.73004154  0.29435074  0.57184760    -0.18000
C1214       C  0.73700056  0.28868266  0.59330892    -0.20200
C1215       C  0.73639744  0.30422823  0.61033971     0.20500
C1216       C  0.72899925  0.32581359  0.60554777    -0.03100
C1217       C  0.72251902  0.33167019  0.58378519    -0.06100
C1218       C  0.72273346  0.31577721  0.56691772     0.20800
C1219       C  0.71518865  0.35325587  0.57908552     0.18900
C1220       C  0.71430135  0.36876950  0.59609574    -0.17600
C1221       C  0.72007555  0.36279954  0.61774850    -0.19800
C1222       C  0.72735639  0.34137044  0.62264016     0.20400
C1223       C  0.73238122  0.33506603  0.64443967    -0.32900
C1224       C  0.73966315  0.31360719  0.64941010     0.01100
C1225       C  0.74220649  0.29839106  0.63221834    -0.24200
C1226       C  0.71497715  0.32140751  0.54563403    -0.28800
C1227       C  0.70723863  0.34281431  0.54094182     0.06800
C1228       C  0.70811829  0.35878420  0.55764894    -0.27400
H1229       H  0.73021859  0.28191071  0.55912963     0.11500
H1230       H  0.74241553  0.27199236  0.59668874     0.12600
H1231       H  0.70859783  0.38538209  0.59275920     0.11700
H1232       H  0.71869330  0.37491066  0.63071150     0.11000
H1233       H  0.73029603  0.34678134  0.65770037     0.16300
H1234       H  0.74743560  0.28172806  0.63607532     0.12300
H1235       H  0.71423651  0.30892455  0.53297265     0.15100
H1236       H  0.70275637  0.37547449  0.55412374     0.14900
C1237       C  0.56918505  0.33978893  0.77315973    -0.18000
C1238       C  0.59101875  0.33327312  0.77866336    -0.20200
C1239       C  0.60516603  0.32432838  0.76257971     0.20500
C1240       C  0.59698033  0.32180474  0.74076691    -0.03100
C1241       C  0.57508577  0.32851094  0.73518645    -0.06100
C1242       C  0.56106076  0.33758155  0.75143849     0.20800
C1243       C  0.56737716  0.32640953  0.71320457     0.18900
C1244       C  0.58130027  0.31736334  0.69710350    -0.17600
C1245       C  0.60281500  0.31055987  0.70265519    -0.19800
C1246       C  0.61079378  0.31288571  0.72434240     0.20400
C1247       C  0.63262322  0.30695556  0.72960681    -0.32900
C1248       C  0.64147011  0.31026245  0.75090843     0.01100
C1249       C  0.62747144  0.31841308  0.76762028    -0.24200
C1250       C  0.53938003  0.34457890  0.74550971    -0.28800
C1251       C  0.53192329  0.34293205  0.72345595     0.06800
C1252       C  0.54597877  0.33363877  0.70754402    -0.27400
H1253       H  0.55871548  0.34676268  0.78586801     0.11500
H1254       H  0.59689616  0.33540665  0.79547694     0.12600
H1255       H  0.57559277  0.31566916  0.68017079     0.11700
H1256       H  0.61334838  0.30376184  0.68989162     0.11000
H1257       H  0.64303905  0.30016155  0.71675322     0.16300
H1258       H  0.63411164  0.32093868  0.78410259     0.12300
H1259       H  0.52860955  0.35188882  0.75778216     0.15100
H1260       H  0.54021704  0.33219641  0.69058193     0.14900
C1261       C  0.73463053  0.46293057  0.73160516    -0.18000
C1262       C  0.74166996  0.44146332  0.73652509    -0.20200
C1263       C  0.72744921  0.42356361  0.73275998     0.20500
C1264       C  0.70576633  0.42740680  0.72440247    -0.03100
C1265       C  0.69865603  0.44900236  0.71954581    -0.06100
C1266       C  0.71324355  0.46685810  0.72287388     0.20800
C1267       C  0.67702576  0.45266059  0.71104883     0.18900
C1268       C  0.66254449  0.43490187  0.70787824    -0.17600
C1269       C  0.66960976  0.41353167  0.71259139    -0.19800
C1270       C  0.69121667  0.40964524  0.72061888     0.20400
C1271       C  0.69850639  0.38823454  0.72473599    -0.32900
C1272       C  0.72014885  0.38413020  0.73272429     0.01100
C1273       C  0.73451105  0.40189029  0.73697918    -0.24200
C1274       C  0.70632047  0.48820083  0.71692995    -0.28800
C1275       C  0.68502242  0.49178002  0.70769549     0.06800
C1276       C  0.67032089  0.47396334  0.70544519    -0.27400
H1277       H  0.74600429  0.47644183  0.73440440     0.11500
H1278       H  0.75832108  0.43884430  0.74305398     0.12600
H1279       H  0.64585069  0.43751409  0.70145375     0.11700
H1280       H  0.65823831  0.40001651  0.70976535     0.11000
H1281       H  0.68718139  0.37470073  0.72174896     0.16300
H1282       H  0.75121687  0.39884245  0.74320367     0.12300
H1283       H  0.71771559  0.50186374  0.71879619     0.15100
H1284       H  0.65362185  0.47664769  0.69903681     0.14900
C1285       C  0.23192442  0.77245137  0.60055040    -0.18000
C1286       C  0.23922709  0.76635239  0.57954793    -0.20200
C1287       C  0.24453419  0.74435956  0.57511781     0.20500
C1288       C  0.24182757  0.72822384  0.59177597    -0.03100
C1289       C  0.23474479  0.73439417  0.61300807    -0.06100
C1290       C  0.23007164  0.75668003  0.61749065     0.20800
C1291       C  0.23344773  0.71843113  0.63003367     0.18900
C1292       C  0.23796214  0.69633800  0.62542168    -0.17600
C1293       C  0.24467726  0.69017683  0.60427653    -0.19800
C1294       C  0.24711153  0.70606241  0.58751443     0.20400
C1295       C  0.25543114  0.70026837  0.56679433    -0.32900
C1296       C  0.25912349  0.71638774  0.55040500     0.01100
C1297       C  0.25326054  0.73835741  0.55458861    -0.24200
C1298       C  0.22491369  0.76292514  0.63912508    -0.28800
C1299       C  0.22527032  0.74725306  0.65624058     0.06800
C1300       C  0.22887237  0.72502898  0.65161626    -0.27400
H1301       H  0.22839627  0.78960355  0.60373040     0.11500
H1302       H  0.24114408  0.77890849  0.56688949     0.12600
H1303       H  0.23681858  0.68391558  0.63830076     0.11700
H1304       H  0.24857686  0.67308204  0.60120497     0.11200
H1305       H  0.25946425  0.68322392  0.56358018     0.16300
H1306       H  0.25631367  0.75096953  0.54221982     0.12300
H1307       H  0.22223478  0.78011027  0.64294793     0.15100
H1308       H  0.22901661  0.71306063  0.66501774     0.14900
C1309       C  0.40533931  0.76428884  0.74472874    -0.18000
C1310       C  0.38386810  0.77005673  0.75174100    -0.20200
C1311       C  0.36694206  0.75418169  0.75307234     0.20500
C1312       C  0.37191955  0.73214823  0.74782705    -0.03100
C1313       C  0.39361097  0.72632696  0.74083335    -0.06100
C1314       C  0.41032694  0.74252842  0.73890481     0.20800
C1315       C  0.39828548  0.70444565  0.73492831     0.18900
C1316       C  0.38149358  0.68848641  0.73648413    -0.17600
C1317       C  0.36000880  0.69427003  0.74317353    -0.19800
C1318       C  0.35497253  0.71608436  0.74858272     0.20400
C1319       C  0.33306527  0.72227784  0.75369517    -0.32900
C1320       C  0.32783789  0.74426457  0.75829459     0.01100
C1321       C  0.34492832  0.76006768  0.75854558    -0.24200
C1322       C  0.43134709  0.73688003  0.73023779    -0.28800
C1323       C  0.43582531  0.71521468  0.72338214     0.06800
C1324       C  0.41937296  0.69900262  0.72670633    -0.27400
H1325       H  0.41792382  0.77696928  0.74339726     0.11500
H1326       H  0.38037080  0.78705842  0.75564361     0.12600
H1327       H  0.38482146  0.67160900  0.73195492     0.11700
H1328       H  0.34720046  0.68174903  0.74367108     0.11000
H1329       H  0.31984610  0.71015304  0.75327950     0.16300
H1330       H  0.34081364  0.77712517  0.76162414     0.12300
H1331       H  0.44374159  0.74958152  0.72780138     0.15100
H1332       H  0.42273147  0.68210796  0.72225713     0.14900
C1333       C  0.25990212  0.62463387  0.67372412    -0.18000
C1334       C  0.25487347  0.64617647  0.67978816    -0.20200
C1335       C  0.25141407  0.65138359  0.70206880     0.20500
C1336       C  0.25262878  0.63468057  0.71837728    -0.03100
C1337       C  0.25803780  0.61301954  0.71228853    -0.06100
C1338       C  0.26181027  0.60804213  0.68988230     0.20800
C1339       C  0.26026048  0.59650506  0.72867245     0.18900
C1340       C  0.25627807  0.60162888  0.75090599    -0.17600
C1341       C  0.25060698  0.62305192  0.75692458    -0.19800
C1342       C  0.24899450  0.63971780  0.74083011     0.20400
C1343       C  0.24431050  0.66141372  0.74683979    -0.32900
C1344       C  0.24384744  0.67816798  0.73076459     0.01100
C1345       C  0.24721009  0.67306203  0.70839862    -0.24200
C1346       C  0.26813999  0.58673764  0.68405918    -0.28800
C1347       C  0.27181770  0.57045951  0.70038290     0.06800
C1348       C  0.26725971  0.57539026  0.72265071    -0.27400
H1349       H  0.26278782  0.62104634  0.65644320     0.11500
H1350       H  0.25395568  0.65880910  0.66708837     0.12600
H1351       H  0.25784365  0.58912731  0.76368652     0.11700
H1352       H  0.24786635  0.62666963  0.77422156     0.11000
H1353       H  0.24181744  0.66541982  0.76409898     0.16300
H1354       H  0.24660850  0.68599904  0.69595558     0.12300
H1355       H  0.27078080  0.58303648  0.66676872     0.15100
H1356       H  0.27014234  0.56318728  0.73549196     0.14900
C1357       C  0.25438807  0.37083164  0.61221541    -0.18000
C1358       C  0.24991288  0.36438763  0.63400317    -0.20200
C1359       C  0.24247838  0.34302565  0.63871895     0.20500
C1360       C  0.23881818  0.32820631  0.62123707    -0.03100
C1361       C  0.24367767  0.33463103  0.59921530    -0.06100
C1362       C  0.25175054  0.35595083  0.59477693     0.20800
C1363       C  0.24118518  0.31951954  0.58178570     0.18900
C1364       C  0.23301323  0.29837093  0.58649508    -0.17600
C1365       C  0.22796735  0.29206994  0.60828331    -0.19800
C1366       C  0.23114065  0.30673305  0.62584214     0.20400
C1367       C  0.22767823  0.30008154  0.64795800    -0.32900
C1368       C  0.23248792  0.31445932  0.66546061     0.01100
C1369       C  0.23948665  0.33599652  0.66066082    -0.24200
C1370       C  0.25777462  0.36184564  0.57312659    -0.28800
C1371       C  0.25656482  0.34658673  0.55570965     0.06800
C1372       C  0.24764462  0.32556816  0.56015360    -0.27400
H1373       H  0.26049299  0.38730373  0.60907431     0.11500
H1374       H  0.25267060  0.37600228  0.64722360     0.12600
H1375       H  0.23088615  0.28654568  0.57335963     0.11700
H1376       H  0.22207407  0.27552921  0.61145814     0.11000
H1377       H  0.22252473  0.28338000  0.65161271     0.16300
H1378       H  0.24316577  0.34711991  0.67411645     0.12300
H1379       H  0.26389787  0.37830576  0.56994627     0.15100
H1380       H  0.24658229  0.31360923  0.54701695     0.14900
C1381       C  0.30850196  0.41518841  0.73146029    -0.18000
C1382       C  0.31331306  0.43714235  0.72655660    -0.20200
C1383       C  0.29604130  0.45257361  0.72423668     0.20500
C1384       C  0.27378812  0.44610948  0.72782474    -0.03100
C1385       C  0.26896115  0.42402353  0.73313584    -0.06100
C1386       C  0.28637817  0.40841642  0.73444648     0.20800
C1387       C  0.24670010  0.41747883  0.73667460     0.18900
C1388       C  0.22952978  0.43314248  0.73514451    -0.17600
C1389       C  0.23428613  0.45497130  0.72945220    -0.19800
C1390       C  0.25631112  0.46153745  0.72541649     0.20400
C1391       C  0.26107216  0.48292250  0.71797930    -0.32900
C1392       C  0.28309524  0.48899686  0.71300821     0.01100
C1393       C  0.30056165  0.47407864  0.71734319    -0.24200
C1394       C  0.28137349  0.38629820  0.73862790    -0.28800
C1395       C  0.25927524  0.37966655  0.74223216     0.06800
C1396       C  0.24202810  0.39535993  0.74148653    -0.27400
H1397       H  0.32206807  0.40345479  0.73268378     0.11500
H1398       H  0.33049904  0.44192425  0.72396438     0.12600
H1399       H  0.21236498  0.42842058  0.73794531     0.11700
H1400       H  0.22069348  0.46663448  0.72784295     0.11000
H1401       H  0.24752691  0.49433494  0.71476709     0.16300
H1402       H  0.31765958  0.47889138  0.71420768     0.12300
H1403       H  0.29471791  0.37426954  0.73950120     0.15100
H1404       H  0.22495333  0.39025017  0.74423781     0.14900
C1405       C  0.36872999  0.36062640  0.73842429    -0.18000
C1406       C  0.39000187  0.36740558  0.73204135    -0.20200
C1407       C  0.40812983  0.35286498  0.73343396     0.20500
C1408       C  0.40491749  0.33139074  0.74175157    -0.03100
C1409       C  0.38340844  0.32461846  0.74856099    -0.06100
C1410       C  0.36524606  0.33926809  0.74659259     0.20800
C1411       C  0.38001591  0.30318417  0.75705071     0.18900
C1412       C  0.39833829  0.28880556  0.75872014    -0.17600
C1413       C  0.41962886  0.29546226  0.75177151    -0.19800
C1414       C  0.42310841  0.31669185  0.74310388     0.20400
C1415       C  0.44427588  0.32340546  0.73544673    -0.32900
C1416       C  0.44748056  0.34475547  0.72663995     0.01100
C1417       C  0.42930627  0.35944845  0.72634727    -0.24200
C1418       C  0.34380676  0.33225389  0.75242286    -0.28800
C1419       C  0.34003822  0.31085275  0.76055957     0.06800
C1420       C  0.35832418  0.29646129  0.76323152    -0.27400
H1421       H  0.35495705  0.37208920  0.73688506     0.11500
H1422       H  0.39221723  0.38397094  0.72572540     0.12600
H1423       H  0.39616645  0.27230372  0.76520511     0.11700
H1424       H  0.43336735  0.28393635  0.75307678     0.11000
H1425       H  0.45801417  0.31182596  0.73578068     0.16300
H1426       H  0.43155157  0.37612915  0.72036626     0.12300
H1427       H  0.32981410  0.34338871  0.75021281     0.15100
H1428       H  0.35551273  0.27982190  0.76909312     0.14900
C1429       C  0.06734799  0.15822181  0.03297826    -0.18000
C1430       C  0.08522394  0.17304994  0.03312700    -0.20200
C1431       C  0.10401860  0.16950547  0.01981228     0.20500
C1432       C  0.10452220  0.15106649  0.00583612    -0.03100
C1433       C  0.08655620  0.13600024  0.00580531    -0.06100
C1434       C  0.06793355  0.13948545  0.01958160     0.20800
C1435       C  0.08741564  0.11727856  0.99222841     0.18900
C1436       C  0.10572754  0.11418312  0.97822566    -0.17600
C1437       C  0.12339068  0.12916431  0.97813566    -0.19800
C1438       C  0.12311813  0.14747376  0.99211446     0.20400
C1439       C  0.14128854  0.16200317  0.99283588    -0.32900
C1440       C  0.14131270  0.18023124  0.00711059     0.01100
C1441       C  0.12237258  0.18392820  0.02038164    -0.24200
C1442       C  0.05047376  0.12399717  0.01996179    -0.28800
C1443       C  0.05174523  0.10484945  0.00712139     0.06800
C1444       C  0.07014847  0.10179031  0.99312812    -0.27400
H1445       H  0.05317718  0.16126954  0.04357688     0.11500
H1446       H  0.08443053  0.18721223  0.04383745     0.12600
H1447       H  0.10651597  0.10001581  0.96751264     0.11700
H1448       H  0.13743424  0.12625214  0.96733583     0.11000
H1449       H  0.15572795  0.15869515  0.98268316     0.16300
H1450       H  0.12184937  0.19808370  0.03111907     0.12300
H1451       H  0.03630645  0.12644499  0.03074280     0.15100
H1452       H  0.07101758  0.08724325  0.98291525     0.14900
C1453       C  0.22819738  0.26691197  0.93843446    -0.18000
C1454       C  0.23618468  0.27243349  0.91733732    -0.20200
C1455       C  0.23778796  0.25646523  0.90076909     0.20500
C1456       C  0.23164615  0.23457357  0.90574686    -0.03100
C1457       C  0.22371807  0.22896481  0.92713098    -0.06100
C1458       C  0.22172712  0.24527483  0.94347865     0.20800
C1459       C  0.21704622  0.20721423  0.93187831     0.18900
C1460       C  0.21879116  0.19117076  0.91540108    -0.17600
C1461       C  0.22633182  0.19676630  0.89419286    -0.19800
C1462       C  0.23252182  0.21847018  0.88910742     0.20400
C1463       C  0.23859002  0.22454538  0.86745386    -0.32900
C1464       C  0.24423492  0.24643160  0.86217879     0.01100
C1465       C  0.24438101  0.26219163  0.87908100    -0.24200
C1466       C  0.21258160  0.23985526  0.96427449    -0.28800
C1467       C  0.20516461  0.21833934  0.96894273     0.06800
C1468       C  0.20802046  0.20203352  0.95272201    -0.27400
H1469       H  0.22674693  0.27968427  0.95072556     0.11500
H1470       H  0.24068017  0.28933787  0.91384407     0.12600
H1471       H  0.21379291  0.17437357  0.91875246     0.11700
H1472       H  0.22693993  0.18417422  0.88163692     0.11000
H1473       H  0.23806449  0.21241561  0.85441415     0.16300
H1474       H  0.24811805  0.27916598  0.87500614     0.12300
H1475       H  0.21033425  0.25261800  0.97646233     0.15100
H1476       H  0.20272616  0.18533419  0.95615812     0.14900
C1477       C  0.72408045  0.76396060  0.43603522    -0.18000
C1478       C  0.73043554  0.76883817  0.41424107    -0.20200
C1479       C  0.71570083  0.76517188  0.39650999     0.20500
C1480       C  0.69414644  0.75703756  0.40090650    -0.03100
C1481       C  0.68766067  0.75234561  0.42289628    -0.06100
C1482       C  0.70278863  0.75553531  0.44054645     0.20800
C1483       C  0.66615401  0.74406953  0.42713496     0.18900
C1484       C  0.65121073  0.74087119  0.40954795    -0.17600
C1485       C  0.65768474  0.74532680  0.38780592    -0.19800
C1486       C  0.67917980  0.75314341  0.38329361     0.20400
C1487       C  0.68604587  0.75670712  0.36142708    -0.32900
C1488       C  0.70764352  0.76435210  0.35674317     0.01100
C1489       C  0.72224454  0.76901421  0.37445416    -0.24200
C1490       C  0.69645278  0.74990010  0.46227328    -0.28800
C1491       C  0.67513972  0.74120344  0.46650370     0.06800
C1492       C  0.66001107  0.73878834  0.44882684    -0.27400
H1493       H  0.73590109  0.76660584  0.44934928     0.11500
H1494       H  0.74702745  0.77514736  0.41122180     0.12600
H1495       H  0.63460682  0.73458510  0.41257601     0.11700
H1496       H  0.64595904  0.74238085  0.37447797     0.11000
H1497       H  0.67450514  0.75349439  0.34798822     0.16300
H1498       H  0.73887827  0.77504488  0.37105261     0.12300
H1499       H  0.70823892  0.75177623  0.47576434     0.15100
H1500       H  0.64335856  0.73264764  0.45194332     0.14900
C1501       C  0.60398123  0.77147807  0.34158295    -0.18000
C1502       C  0.58235527  0.76733563  0.34907135    -0.20200
C1503       C  0.56411059  0.76901500  0.33451570     0.20500
C1504       C  0.56759100  0.77584197  0.31243947    -0.03100
C1505       C  0.58943172  0.78024858  0.30491941    -0.06100
C1506       C  0.60770583  0.77755768  0.31946926     0.20800
C1507       C  0.59304612  0.78656892  0.28267388     0.18900
C1508       C  0.57469291  0.78890252  0.26834500    -0.17600
C1509       C  0.55307299  0.78437069  0.27576065    -0.19800
C1510       C  0.54936867  0.77749169  0.29766589     0.20400
C1511       C  0.52795415  0.77130208  0.30475601    -0.32900
C1512       C  0.52453087  0.76330868  0.32639707     0.01100
C1513       C  0.54261591  0.76307867  0.34139781    -0.24200
C1514       C  0.62942551  0.78025481  0.31148842    -0.28800
C1515       C  0.63321728  0.78591717  0.28923466     0.06800
C1516       C  0.61497124  0.78966472  0.27501394    -0.27400
H1517       H  0.61784442  0.76952232  0.35298974     0.11500
H1518       H  0.57997015  0.76223495  0.36611041     0.12600
H1519       H  0.57710199  0.79377647  0.25124717     0.11700
H1520       H  0.53927630  0.78582298  0.26421312     0.11000
H1521       H  0.51422158  0.77151924  0.29305032     0.16300
H1522       H  0.54011289  0.75747197  0.35827099     0.12300
H1523       H  0.64350751  0.77743970  0.32247965     0.15100
H1524       H  0.61788669  0.79382216  0.25779595     0.14900
C1525       C  0.72895816  0.60438587  0.26699798    -0.18000
C1526       C  0.73416100  0.62621956  0.26153619    -0.20200
C1527       C  0.73229175  0.64288020  0.27738252     0.20500
C1528       C  0.72572176  0.63735434  0.29911030    -0.03100
C1529       C  0.72090038  0.61529227  0.30470939    -0.06100
C1530       C  0.72208369  0.59875484  0.28848674     0.20800
C1531       C  0.71428353  0.60991904  0.32641628     0.18900
C1532       C  0.71264664  0.62645718  0.34236215    -0.17600
C1533       C  0.71699881  0.64832251  0.33672485    -0.19800
C1534       C  0.72331992  0.65396149  0.31512368     0.20400
C1535       C  0.72662256  0.67599056  0.30912694    -0.32900
C1536       C  0.73274181  0.68166556  0.28746916     0.01100
C1537       C  0.73614952  0.66503556  0.27178255    -0.24200
C1538       C  0.71552142  0.57713422  0.29384824    -0.28800
C1539       C  0.70805038  0.57189704  0.31531236     0.06800
C1540       C  0.70858445  0.58825027  0.33167665    -0.27400
H1541       H  0.73004213  0.59194606  0.25432736     0.11500
H1542       H  0.73918650  0.63014752  0.24477437     0.12600
H1543       H  0.70748645  0.62254839  0.35908972     0.11700
H1544       H  0.71515284  0.66086822  0.34920290     0.11000
H1545       H  0.72412404  0.68881995  0.32121999     0.16300
H1546       H  0.74070406  0.66946136  0.25499081     0.12300
H1547       H  0.71514286  0.56475047  0.28107610     0.15100
H1548       H  0.70354637  0.58431495  0.34844521     0.14900
C1549       C  0.72147571  0.28861572  0.42668066    -0.18000
C1550       C  0.72648046  0.28244350  0.40496357    -0.20200
C1551       C  0.72797292  0.29834725  0.38805516     0.20500
C1552       C  0.72500674  0.32074661  0.39322998    -0.03100
C1553       C  0.72009152  0.32696121  0.41510304    -0.06100
C1554       C  0.71790111  0.31080086  0.43186719     0.20800
C1555       C  0.71652922  0.34931642  0.41998300     0.18900
C1556       C  0.71862494  0.36530010  0.40329839    -0.17600
C1557       C  0.72328670  0.35914021  0.38163202    -0.19800
C1558       C  0.72609590  0.33692368  0.37638311     0.20400
C1559       C  0.72919216  0.33058370  0.35444244    -0.32900
C1560       C  0.73164494  0.30835773  0.34910212     0.01100
C1561       C  0.73158340  0.29228831  0.36595159    -0.24200
C1562       C  0.71124904  0.31709403  0.45320448    -0.28800
C1563       C  0.70651248  0.33926879  0.45768413     0.06800
C1564       C  0.70998207  0.35528677  0.44122695    -0.27400
H1565       H  0.71994263  0.27598901  0.43932178     0.11500
H1566       H  0.72872338  0.26518233  0.40130388     0.12600
H1567       H  0.71604585  0.38253235  0.40688788     0.11700
H1568       H  0.72424647  0.37172392  0.36888659     0.11000
H1569       H  0.72920867  0.34289969  0.34136281     0.16300
H1570       H  0.73318483  0.27508527  0.36169297     0.12300
H1571       H  0.70867021  0.30472228  0.46593901     0.15100
H1572       H  0.70678416  0.37243766  0.44481334     0.14900
C1573       C  0.66797607  0.44277224  0.28058339    -0.18000
C1574       C  0.67181979  0.42107734  0.27434310    -0.20200
C1575       C  0.69302598  0.41169084  0.27696273     0.20500
C1576       C  0.71071404  0.42438406  0.28550546    -0.03100
C1577       C  0.70680618  0.44632122  0.29187050    -0.06100
C1578       C  0.68528150  0.45540881  0.28951907     0.20800
C1579       C  0.72426361  0.45900529  0.30092488     0.18900
C1580       C  0.74557086  0.44961136  0.30320999    -0.17600
C1581       C  0.74949255  0.42785622  0.29676059    -0.19800
C1582       C  0.73215791  0.41505424  0.28799715     0.20400
C1583       C  0.73570455  0.39302562  0.28197718    -0.32900
C1584       C  0.71788241  0.38023903  0.27412251     0.01100
C1585       C  0.69670946  0.38970877  0.27150868    -0.24200
C1586       C  0.68122506  0.47682721  0.29658102    -0.28800
C1587       C  0.69823186  0.48941098  0.30625311     0.06800
C1588       C  0.71989235  0.48060761  0.30798965    -0.27400
H1589       H  0.65137562  0.44959296  0.27867333     0.11500
H1590       H  0.65813189  0.41155175  0.26769784     0.12600
H1591       H  0.75917525  0.45903684  0.31014673     0.11700
H1592       H  0.76604504  0.42097143  0.29883508     0.11000
H1593       H  0.75206472  0.38565298  0.28396080     0.16300
H1594       H  0.68307585  0.37988448  0.26514557     0.12300
H1595       H  0.66456606  0.48363722  0.29501941     0.15100
H1596       H  0.73301490  0.49020550  0.31558824     0.14900
C1597       C  0.55043484  0.30506964  0.24715748    -0.18000
C1598       C  0.57238243  0.29853130  0.24295427    -0.20200
C1599       C  0.59011966  0.31321791  0.24596337     0.20500
C1600       C  0.58563457  0.33495594  0.25260838    -0.03100
C1601       C  0.56339809  0.34166208  0.25649194    -0.06100
C1602       C  0.54577468  0.32647905  0.25428729     0.20800
C1603       C  0.55891273  0.36326901  0.26342085     0.18900
C1604       C  0.57661046  0.37816748  0.26585459    -0.17600
C1605       C  0.59866722  0.37141133  0.26244434    -0.19800
C1606       C  0.60339852  0.34973607  0.25615452     0.20400
C1607       C  0.62553113  0.34237792  0.25390468    -0.32900
C1608       C  0.63006337  0.32063461  0.24746355     0.01100
C1609       C  0.61226825  0.30633004  0.24308209    -0.24200
C1610       C  0.52401385  0.33255647  0.26038099    -0.28800
C1611       C  0.51952984  0.35370380  0.26861035     0.06800
C1612       C  0.53699524  0.36927814  0.26887190    -0.27400
H1613       H  0.53713236  0.29321142  0.24526675     0.11500
H1614       H  0.57553375  0.28179229  0.23784473     0.12600
H1615       H  0.57345772  0.39486888  0.27109437     0.11700
H1616       H  0.61205007  0.38305227  0.26506180     0.11000
H1617       H  0.63923644  0.35345981  0.25731733     0.16300
H1618       H  0.61572742  0.28949560  0.23843768     0.12300
H1619       H  0.51092806  0.32032983  0.26001516     0.15100
H1620       H  0.53377198  0.38589221  0.27433386     0.14900
C1621       C  0.21678087  0.75480271  0.41428346    -0.18000
C1622       C  0.22145879  0.74648262  0.43545912    -0.20200
C1623       C  0.24347524  0.74164065  0.44178448     0.20500
C1624       C  0.26100564  0.74576972  0.42682469    -0.03100
C1625       C  0.25628366  0.75394233  0.40542851    -0.06100
C1626       C  0.23402865  0.75828179  0.39904319     0.20800
C1627       C  0.27379214  0.75719184  0.39024007     0.18900
C1628       C  0.29587657  0.75307427  0.39677107    -0.17600
C1629       C  0.30056914  0.74521999  0.41804939    -0.19800
C1630       C  0.28322993  0.74122102  0.43302612     0.20400
C1631       C  0.28773869  0.73225960  0.45390601    -0.32900
C1632       C  0.27033184  0.72702572  0.46854259     0.01100
C1633       C  0.24823101  0.73218239  0.46253346    -0.24200
C1634       C  0.22940352  0.76539838  0.37734761    -0.28800
C1635       C  0.24672499  0.76766235  0.36192607     0.06800
C1636       C  0.26887508  0.76391775  0.36859241    -0.27400
H1637       H  0.19962057  0.75811768  0.40968137     0.11500
H1638       H  0.20781820  0.74354659  0.44678392     0.12600
H1639       H  0.30948913  0.75562190  0.38531440     0.11700
H1640       H  0.31772542  0.74184454  0.42264263     0.11000
H1641       H  0.30489555  0.72905521  0.45863577     0.16300
H1642       H  0.23468004  0.72817684  0.47363963     0.12300
H1643       H  0.21230293  0.76825227  0.37219058     0.15100
H1644       H  0.28228426  0.76596688  0.35677933     0.14900
C1645       C  0.22123623  0.61240559  0.30115901    -0.18000
C1646       C  0.21448546  0.63432304  0.29802578    -0.20200
C1647       C  0.22911031  0.64986480  0.28877630     0.20500
C1648       C  0.25076905  0.64311539  0.28264025    -0.03100
C1649       C  0.25746886  0.62100771  0.28553852    -0.06100
C1650       C  0.24267412  0.60554683  0.29492128     0.20800
C1651       C  0.27922543  0.61453772  0.27955794     0.18900
C1652       C  0.29408016  0.63005758  0.27084735    -0.17600
C1653       C  0.28751004  0.65190517  0.26810945    -0.19800
C1654       C  0.26595985  0.65855045  0.27396682     0.20400
C1655       C  0.25956746  0.68050687  0.27164292    -0.32900
C1656       C  0.23815050  0.68750993  0.27769314     0.01100
C1657       C  0.22276133  0.67208949  0.28595543    -0.24200
C1658       C  0.24994506  0.58378395  0.29862207    -0.28800
C1659       C  0.27182629  0.57755277  0.29316879     0.06800
C1660       C  0.28612081  0.59286207  0.28318842    -0.27400
H1661       H  0.20971897  0.60083988  0.30858725     0.11500
H1662       H  0.19788811  0.63916379  0.30304741     0.12600
H1663       H  0.31089029  0.62534938  0.26639772     0.11700
H1664       H  0.29935475  0.66365980  0.26154045     0.11000
H1665       H  0.27141892  0.69234583  0.26517543     0.16300
H1666       H  0.20630196  0.67750428  0.29086076     0.12300
H1667       H  0.23911190  0.57207505  0.30683270     0.15100
H1668       H  0.30309368  0.58809512  0.27934635     0.14900
C1669       C  0.38784304  0.79828294  0.27504385    -0.18000
C1670       C  0.40959684  0.79169712  0.28069212    -0.20200
C1671       C  0.41391089  0.78057347  0.30073446     0.20500
C1672       C  0.39608122  0.77642667  0.31534821    -0.03100
C1673       C  0.37413604  0.78296004  0.30961906    -0.06100
C1674       C  0.36992373  0.79381098  0.28927953     0.20800
C1675       C  0.35631578  0.77796663  0.32396639     0.18900
C1676       C  0.36055966  0.76708213  0.34408301    -0.17600
C1677       C  0.38224967  0.76085284  0.34983444    -0.19800
C1678       C  0.40005097  0.76528554  0.33551103     0.20400
C1679       C  0.42165487  0.75834082  0.34092146    -0.32900
C1680       C  0.43955032  0.76146955  0.32617752     0.01100
C1681       C  0.43554585  0.77302374  0.30619151    -0.24200
C1682       C  0.34779374  0.79909774  0.28320368    -0.28800
C1683       C  0.32993158  0.79308982  0.29702660     0.06800
C1684       C  0.33443293  0.78306160  0.31758014    -0.27400
H1685       H  0.38498023  0.80653295  0.25933433     0.11500
H1686       H  0.42301817  0.79507083  0.26923360     0.12600
H1687       H  0.34704197  0.76309353  0.35523973     0.11700
H1688       H  0.38504971  0.75221673  0.36534990     0.11000
H1689       H  0.42443119  0.75026101  0.35673284     0.16300
H1690       H  0.44903045  0.77555110  0.29459441     0.12300
H1691       H  0.34436439  0.80658224  0.26720859     0.15100
H1692       H  0.32070916  0.77843187  0.32826377     0.14900
C1693       C  0.05685828  0.04252786  0.14063402    -0.18000
C1694       C  0.07340604  0.04321321  0.15694237    -0.20200
C1695       C  0.09429771  0.03359173  0.15324523     0.20500
C1696       C  0.09846856  0.02281461  0.13307322    -0.03100
C1697       C  0.08189578  0.02239741  0.11650821    -0.06100
C1698       C  0.06103431  0.03239999  0.12030723     0.20800
C1699       C  0.08641978  0.01254119  0.09594362     0.18900
C1700       C  0.10715284  0.00247468  0.09242642    -0.17600
C1701       C  0.12349460  0.00262526  0.10898055    -0.19800
C1702       C  0.11940091  0.01300467  0.12920583     0.20400
C1703       C  0.13605964  0.01427007  0.14540296    -0.32900
C1704       C  0.13219081  0.02553098  0.16523557     0.01100
C1705       C  0.11124328  0.03496645  0.16916437    -0.24200
C1706       C  0.04494097  0.03268976  0.10348533    -0.28800
C1707       C  0.04968263  0.02374636  0.08269202     0.06800
C1708       C  0.07032758  0.01343020  0.07909614    -0.27400
H1709       H  0.04092835  0.05029678  0.14375735     0.11500
H1710       H  0.06994949  0.05149274  0.17235382     0.12600
H1711       H  0.11083102  0.99474225  0.07677213     0.11700
H1712       H  0.13948463  0.99499050  0.10581040     0.11000
H1713       H  0.15231309  0.00713384  0.14229684     0.16300
H1714       H  0.10822211  0.04344129  0.18457526     0.12300
H1715       H  0.02903508  0.04066597  0.10627931     0.15100
H1716       H  0.07389095  0.00621747  0.06314838     0.14900
C1717       C  0.22776092  0.93945092  0.25785873    -0.18000
C1718       C  0.21972128  0.96055969  0.25310286    -0.20200
C1719       C  0.21323584  0.96630231  0.23148934     0.20500
C1720       C  0.21554372  0.95082637  0.21435000    -0.03100
C1721       C  0.22337802  0.92947546  0.21917920    -0.06100
C1722       C  0.22927045  0.92370333  0.24110680     0.20800
C1723       C  0.22420755  0.91359755  0.20228471     0.18900
C1724       C  0.21835056  0.91947843  0.18054837    -0.17600
C1725       C  0.21092829  0.94074872  0.17569935    -0.19800
C1726       C  0.20903326  0.95633822  0.19256885     0.20400
C1727       C  0.19970801  0.97697719  0.18821823    -0.32900
C1728       C  0.19587140  0.99192319  0.20546178     0.01100
C1729       C  0.20342293  0.98680706  0.22692540    -0.24200
C1730       C  0.23535879  0.90197744  0.24609087    -0.28800
C1731       C  0.23471094  0.88591159  0.22959281     0.06800
C1732       C  0.22972050  0.89185502  0.20765671    -0.27400
H1733       H  0.23216675  0.93524193  0.27477294     0.11500
H1734       H  0.21808584  0.97223464  0.26643430     0.12600
H1735       H  0.21899222  0.90748578  0.16741069     0.11700
H1736       H  0.20598002  0.94479520  0.15888871     0.11000
H1737       H  0.19447916  0.98105627  0.17148517     0.16300
H1738       H  0.20050517  0.99821042  0.24028461     0.12300
H1739       H  0.23895855  0.89721628  0.26306457     0.15100
H1740       H  0.22925581  0.87934035  0.19498443     0.14900
C1741       C  0.23725905  0.36337983  0.39411677    -0.18000
C1742       C  0.24277643  0.36996273  0.41557653    -0.20200
C1743       C  0.24452135  0.35444556  0.43281176     0.20500
C1744       C  0.24014304  0.33211716  0.42849895    -0.03100
C1745       C  0.23434939  0.32547046  0.40679090    -0.06100
C1746       C  0.23324664  0.34116723  0.38949355     0.20800
C1747       C  0.23017876  0.30310448  0.40229631     0.18900
C1748       C  0.23177301  0.28765046  0.41965118    -0.17600
C1749       C  0.23768366  0.29421306  0.44110884    -0.19800
C1750       C  0.24200701  0.31639806  0.44573827     0.20400
C1751       C  0.24871827  0.32307292  0.46708313    -0.32900
C1752       C  0.25379450  0.34525759  0.47131716     0.01100
C1753       C  0.25113703  0.36084020  0.45411498    -0.24200
C1754       C  0.22874600  0.33434562  0.36777330    -0.28800
C1755       C  0.22483560  0.31208908  0.36301384     0.06800
C1756       C  0.22512554  0.29657538  0.38045243    -0.27400
H1757       H  0.23637750  0.37566007  0.38105919     0.11500
H1758       H  0.24603643  0.38718474  0.41861915     0.12600
H1759       H  0.22872454  0.27040193  0.41657247     0.11700
H1760       H  0.23905890  0.28187138  0.45406561     0.11000
H1761       H  0.25090376  0.31091498  0.48012061     0.16300
H1762       H  0.25478938  0.37798803  0.45721831     0.12300
H1763       H  0.22866961  0.34632880  0.35439170     0.15100
H1764       H  0.22249468  0.27935592  0.37683486     0.14900
C1765       C  0.39078048  0.31107800  0.30596384    -0.18000
C1766       C  0.36856035  0.30511308  0.30244292    -0.20200
C1767       C  0.35771953  0.31062840  0.28252789     0.20500
C1768       C  0.36961108  0.32146429  0.26561292    -0.03100
C1769       C  0.39212926  0.32753721  0.26919190    -0.06100
C1770       C  0.40255510  0.32268505  0.28964324     0.20800
C1771       C  0.40395082  0.33906362  0.25263069     0.18900
C1772       C  0.39327965  0.34374472  0.23237705    -0.17600
C1773       C  0.37098875  0.33763715  0.22879698    -0.19800
C1774       C  0.35883770  0.32676653  0.24541227     0.20400
C1775       C  0.33603145  0.32160444  0.24247108    -0.32900
C1776       C  0.32385410  0.31169318  0.25974453     0.01100
C1777       C  0.33504470  0.30595904  0.27952158    -0.24200
C1778       C  0.42426960  0.33019360  0.29376392    -0.28800
C1779       C  0.43590267  0.34248034  0.27775634     0.06800
C1780       C  0.42588550  0.34633691  0.25695025    -0.27400
H1781       H  0.39860814  0.30703614  0.32167002     0.11500
H1782       H  0.35970442  0.29656323  0.31550079     0.12600
H1783       H  0.40206208  0.35249018  0.21940772     0.11700
H1784       H  0.36312435  0.34178942  0.21314318     0.11000
H1785       H  0.32760810  0.32600587  0.22716468     0.16300
H1786       H  0.32596481  0.29794533  0.29278531     0.12300
H1787       H  0.43195693  0.32708632  0.30976266     0.15100
H1788       H  0.43472797  0.35589008  0.24459653     0.14900
C1789       C  0.22061713  0.43878312  0.28195220    -0.18000
C1790       C  0.22646482  0.46077314  0.28538191    -0.20200
C1791       C  0.24879766  0.46665063  0.28896596     0.20500
C1792       C  0.26539788  0.45014087  0.28885487    -0.03100
C1793       C  0.25943483  0.42787886  0.28594770    -0.06100
C1794       C  0.23693705  0.42220571  0.28242318     0.20800
C1795       C  0.27595479  0.41130442  0.28680166     0.18900
C1796       C  0.29835916  0.41722433  0.28975627    -0.17600
C1797       C  0.30431605  0.43930108  0.29211337    -0.19800
C1798       C  0.28793229  0.45580710  0.29199635     0.20400
C1799       C  0.29367864  0.47778663  0.29559351    -0.32900
C1800       C  0.27719007  0.49425642  0.29709235     0.01100
C1801       C  0.25476656  0.48860046  0.29322119    -0.24200
C1802       C  0.23113089  0.40006276  0.27956865    -0.28800
C1803       C  0.24740154  0.38337073  0.28084874     0.06800
C1804       C  0.26978943  0.38914115  0.28463135    -0.27400
H1805       H  0.20325626  0.43470064  0.27923054     0.11500
H1806       H  0.21348750  0.47317808  0.28532785     0.12600
H1807       H  0.31128670  0.40477119  0.29027662     0.11700
H1808       H  0.32172194  0.44342862  0.29446959     0.11000
H1809       H  0.31108426  0.48199119  0.29784562     0.16300
H1810       H  0.24190628  0.50106683  0.29431820     0.12300
H1811       H  0.21383602  0.39576533  0.27670070     0.15100
H1812       H  0.28246548  0.37642817  0.28536685     0.14900
C1813       C  0.24797267  0.23856639  0.11156894    -0.18000
C1814       C  0.24308019  0.23184060  0.08988968    -0.20200
C1815       C  0.22132416  0.23362744  0.08128850     0.20500
C1816       C  0.20448229  0.24277496  0.09461585    -0.03100
C1817       C  0.20939192  0.24943221  0.11655632    -0.06100
C1818       C  0.23120481  0.24713547  0.12521570     0.20800
C1819       C  0.19230562  0.25790389  0.12997723     0.18900
C1820       C  0.17075214  0.26050334  0.12118022    -0.17600
C1821       C  0.16595048  0.25408477  0.09950539    -0.19800
C1822       C  0.18257223  0.24482424  0.08622962     0.20400
C1823       C  0.17747459  0.23711624  0.06494820    -0.32900
C1824       C  0.19389439  0.22725488  0.05171706     0.01100
C1825       C  0.21596616  0.22601493  0.05986494    -0.24200
C1826       C  0.23565697  0.25290398  0.14746488    -0.28800
C1827       C  0.21837698  0.26041372  0.16125596     0.06800
C1828       C  0.19686402  0.26315649  0.15211957    -0.27400
H1829       H  0.26484033  0.23671814  0.11778716     0.11500
H1830       H  0.25629928  0.22496947  0.07993030     0.12600
H1831       H  0.15748224  0.26719617  0.13120114     0.11700
H1832       H  0.14908926  0.25597110  0.09326801     0.11000
H1833       H  0.16054610  0.23851194  0.05873079     0.16300
H1834       H  0.22876101  0.21846234  0.04984988     0.12300
H1835       H  0.25226203  0.25070717  0.15426806     0.15100
H1836       H  0.18347522  0.26920972  0.16242181     0.14900
C1837       C  0.22989881  0.10771675  0.22409122    -0.18000
C1838       C  0.23524289  0.12958604  0.22882492    -0.20200
C1839       C  0.21838925  0.14553010  0.23052267     0.20500
C1840       C  0.19591405  0.13925355  0.22776912    -0.03100
C1841       C  0.19050642  0.11710335  0.22353670    -0.06100
C1842       C  0.20758984  0.10132713  0.22132288     0.20800
C1843       C  0.16800543  0.11081409  0.22133107     0.18900
C1844       C  0.15111364  0.12663443  0.22336789    -0.17600
C1845       C  0.15648305  0.14862790  0.22707700    -0.19800
C1846       C  0.17879711  0.15510417  0.22921734     0.20400
C1847       C  0.18422047  0.17711837  0.23305539    -0.32900
C1848       C  0.20647910  0.18348359  0.23628214     0.01100
C1849       C  0.22352718  0.16758893  0.23505788    -0.24200
C1850       C  0.20209973  0.07958581  0.21589275    -0.28800
C1851       C  0.17967495  0.07324943  0.21311526     0.06800
C1852       C  0.16275401  0.08892201  0.21666064    -0.27400
H1853       H  0.24323110  0.09579602  0.22256638     0.11500
H1854       H  0.25258274  0.13406604  0.23095828     0.12600
H1855       H  0.13374244  0.12205907  0.22174392     0.11700
H1856       H  0.14316918  0.16057942  0.22829744     0.11000
H1857       H  0.17100306  0.18921928  0.23432111     0.16300
H1858       H  0.24073679  0.17241978  0.23754265     0.12300
H1859       H  0.21537749  0.06787984  0.21305023     0.15100
H1860       H  0.14539126  0.08423000  0.21531685     0.14900
C1861       C  0.00594720  0.14611669  0.10247551    -0.18000
C1862       C  0.00708405  0.15980437  0.12094647    -0.20200
C1863       C  0.99258855  0.15665453  0.13885197     0.20500
C1864       C  0.97693094  0.13935983  0.13820334    -0.03100
C1865       C  0.97588528  0.12544567  0.11963496    -0.06100
C1866       C  0.99037099  0.12895871  0.10161972     0.20800
C1867       C  0.96042048  0.10797935  0.11914806     0.18900
C1868       C  0.94598124  0.10474909  0.13707852    -0.17600
C1869       C  0.94688238  0.11865367  0.15537236    -0.19800
C1870       C  0.96228117  0.13597630  0.15607835     0.20400
C1871       C  0.96315260  0.15005812  0.17428226    -0.32900
C1872       C  0.97839923  0.16761312  0.17493750     0.01100
C1873       C  0.99329535  0.17061855  0.15726168    -0.24200
C1874       C  0.98922225  0.11508271  0.08320784    -0.28800
C1875       C  0.97423476  0.09737260  0.08286406     0.06800
C1876       C  0.95986723  0.09391149  0.10086461    -0.27400
H1877       H  0.01729196  0.14893579  0.08885230     0.11500
H1878       H  0.01924065  0.17294294  0.12117209     0.12600
H1879       H  0.93398697  0.09145733  0.13695724     0.11700
H1880       H  0.93551741  0.11585818  0.16898451     0.11000
H1881       H  0.95192214  0.14735136  0.18803695     0.16300
H1882       H  0.00503311  0.18412991  0.15759398     0.12300
H1883       H  0.00052104  0.11756437  0.06946356     0.15100
H1884       H  0.94829201  0.08024501  0.10060352     0.14900
C1885       C  0.85467198  0.19273454  0.23297816    -0.18000
C1886       C  0.87657765  0.18610245  0.22896674    -0.20200
C1887       C  0.89442626  0.20037888  0.23311015     0.20500
C1888       C  0.89027072  0.22137481  0.24184932    -0.03100
C1889       C  0.86811255  0.22791364  0.24639068    -0.06100
C1890       C  0.85025183  0.21363034  0.24153670     0.20800
C1891       C  0.86379027  0.24886017  0.25529111     0.18900
C1892       C  0.88175222  0.26305058  0.25952286    -0.17600
C1893       C  0.90369025  0.25671637  0.25460517    -0.19800
C1894       C  0.90816817  0.23593366  0.24565342     0.20400
C1895       C  0.93005658  0.22963120  0.23990425    -0.32900
C1896       C  0.93423482  0.20882226  0.23062854     0.01100
C1897       C  0.91627646  0.19411517  0.22812030    -0.24200
C1898       C  0.82824272  0.22063332  0.24480388    -0.28800
C1899       C  0.82370448  0.24151957  0.25341528     0.06800
C1900       C  0.84157025  0.25539583  0.25916110    -0.27400
H1901       H  0.84115720  0.18155854  0.22923281     0.11500
H1902       H  0.87952994  0.16992776  0.22220174     0.12600
H1903       H  0.87880152  0.27922122  0.26629046     0.11700
H1904       H  0.91715130  0.26815013  0.25767768     0.11000
H1905       H  0.94363174  0.24116808  0.24193264     0.16300
H1906       H  0.91920360  0.17777040  0.22175749     0.12300
H1907       H  0.81453190  0.20990158  0.24040964     0.15100
H1908       H  0.83812168  0.27162403  0.26558952     0.14900
C1909       C  0.07814970  0.18819122  0.23724033    -0.18000
C1910       C  0.09925422  0.19563726  0.24351396    -0.20200
C1911       C  0.10176470  0.21606416  0.25380950     0.20500
C1912       C  0.08279816  0.22895976  0.25827585    -0.03100
C1913       C  0.06146193  0.22163120  0.25146501    -0.06100
C1914       C  0.05920312  0.20122723  0.24080028     0.20800
C1915       C  0.04254398  0.23498557  0.25471452     0.18900
C1916       C  0.04503243  0.25510829  0.26569630    -0.17600
C1917       C  0.06613077  0.26222690  0.27276443    -0.19800
C1918       C  0.08524777  0.24949283  0.26877870     0.20400
C1919       C  0.10680902  0.25726582  0.27415981    -0.32900
C1920       C  0.12583848  0.24490012  0.26858771     0.01100
C1921       C  0.12301507  0.22413439  0.25889008    -0.24200
C1922       C  0.03819300  0.19444918  0.23324147    -0.28800
C1923       C  0.01931900  0.20822062  0.23500994     0.06800
C1924       C  0.02167087  0.22833891  0.24628726    -0.27400
H1925       H  0.07672641  0.17247260  0.22906473     0.11500
H1926       H  0.11367320  0.18554425  0.24002970     0.12600
H1927       H  0.03068386  0.26553461  0.26851966     0.11700
H1928       H  0.06755534  0.27797957  0.28085721     0.11000
H1929       H  0.10883399  0.27340874  0.28132929     0.16300
H1930       H  0.13757945  0.21453272  0.25453099     0.12300
H1931       H  0.03675392  0.17849938  0.22556328     0.15100
H1932       H  0.00751225  0.23927048  0.24782174     0.14900
C1933       C  0.71111280  0.95197797  0.20412221    -0.18000
C1934       C  0.70605103  0.93042431  0.21080470    -0.20200
C1935       C  0.72310316  0.91567170  0.21687857     0.20500
C1936       C  0.74546272  0.92294317  0.21651701    -0.03100
C1937       C  0.75055262  0.94466195  0.20992872    -0.06100
C1938       C  0.73331521  0.95922997  0.20348398     0.20800
C1939       C  0.77297567  0.95163375  0.20938313     0.18900
C1940       C  0.79004274  0.93714511  0.21576908    -0.17600
C1941       C  0.78502113  0.91565399  0.22213887    -0.19800
C1942       C  0.76284893  0.90839178  0.22234266     0.20400
C1943       C  0.75790200  0.88666390  0.22792392    -0.32900
C1944       C  0.73578979  0.87895646  0.22793975     0.01100
C1945       C  0.71833859  0.89369150  0.22283662    -0.24200
C1946       C  0.73870526  0.98057362  0.19612815    -0.28800
C1947       C  0.76110332  0.98720452  0.19499142     0.06800
C1948       C  0.77804739  0.97281358  0.20198512    -0.27400
H1949       H  0.69766087  0.96291837  0.19925198     0.11500
H1950       H  0.68879924  0.92521162  0.21095470     0.12600
H1951       H  0.80731057  0.94233230  0.21550473     0.11700
H1952       H  0.79851647  0.90462207  0.22667504     0.11000
H1953       H  0.77147907  0.87561286  0.23217098     0.16300
H1954       H  0.70126721  0.88790429  0.22278428     0.12300
H1955       H  0.72566128  0.99176395  0.19071479     0.15100
H1956       H  0.79529645  0.97809630  0.20133617     0.14900
C1957       C  0.71173733  0.12349579  0.22689661    -0.18000
C1958       C  0.71654806  0.10198671  0.22036318    -0.20200
C1959       C  0.73843206  0.09590804  0.21501634     0.20500
C1960       C  0.75574042  0.11148628  0.21695194    -0.03100
C1961       C  0.75082833  0.13325540  0.22303883    -0.06100
C1962       C  0.72867887  0.13935391  0.22786631     0.20800
C1963       C  0.76802477  0.14902750  0.22376581     0.18900
C1964       C  0.79007653  0.14273736  0.21949772    -0.17600
C1965       C  0.79500904  0.12106167  0.21394662    -0.19800
C1966       C  0.77790047  0.10549744  0.21219777     0.20400
C1967       C  0.78249197  0.08429534  0.20490292    -0.32900
C1968       C  0.76515177  0.06923495  0.20114015     0.01100
C1969       C  0.74322690  0.07484481  0.20696589    -0.24200
C1970       C  0.72384235  0.16128997  0.23309549    -0.28800
C1971       C  0.74080141  0.17721927  0.23289085     0.06800
C1972       C  0.76285314  0.17089804  0.22842159    -0.27400
H1973       H  0.69467285  0.12785545  0.23070312     0.11500
H1974       H  0.70309731  0.09019417  0.21917966     0.12600
H1975       H  0.80347020  0.15463775  0.22021540     0.11700
H1976       H  0.81212027  0.11661725  0.21041684     0.11000
H1977       H  0.79956949  0.07978826  0.20124191     0.16300
H1978       H  0.72981923  0.06324591  0.20426643     0.12300
H1979       H  0.70681888  0.16611122  0.23657281     0.15100
H1980       H  0.77605162  0.18305284  0.22861197     0.14900
C1981       C  0.84116778  0.01192428  0.07425875    -0.18000
C1982       C  0.82319502  0.01247577  0.08882766    -0.20200
C1983       C  0.82580870  0.02127797  0.11002749     0.20500
C1984       C  0.84668484  0.02981014  0.11659677    -0.03100
C1985       C  0.86486205  0.02905850  0.10198004    -0.06100
C1986       C  0.86203820  0.02005337  0.08073478     0.20800
C1987       C  0.88589392  0.03703985  0.10871488     0.18900
C1988       C  0.88845833  0.04602393  0.12987342    -0.17600
C1989       C  0.87037258  0.04689954  0.14434678    -0.19800
C1990       C  0.84948552  0.03875322  0.13788403     0.20400
C1991       C  0.83141543  0.03905128  0.15242477    -0.32900
C1992       C  0.81078232  0.03018514  0.14605255     0.01100
C1993       C  0.80800759  0.02139591  0.12489131    -0.24200
C1994       C  0.88017319  0.01914240  0.06636813    -0.28800
C1995       C  0.90122040  0.02683195  0.07300685     0.06800
C1996       C  0.90399064  0.03576881  0.09420718    -0.27400
H1997       H  0.83879872  0.00494943  0.05798522     0.11500
H1998       H  0.80728181  0.00589581  0.08356325     0.12600
H1999       H  0.90447455  0.05226643  0.13526462     0.11700
H2000       H  0.87276511  0.05377173  0.16066302     0.11000
H2001       H  0.83347921  0.04566783  0.16891180     0.16300
H2002       H  0.79199664  0.01466327  0.12008548     0.12300
H2003       H  0.87794112  0.01218927  0.05005118     0.15100
H2004       H  0.92012366  0.04200243  0.09929023     0.14900
C2005       C  0.08457865  0.75312832  0.20415292    -0.18000
C2006       C  0.06247954  0.75682187  0.19707823    -0.20200
C2007       C  0.05263998  0.77774399  0.19889568     0.20500
C2008       C  0.06507357  0.79481186  0.20870819    -0.03100
C2009       C  0.08734309  0.79113764  0.21567512    -0.06100
C2010       C  0.09736934  0.77030136  0.21309557     0.20800
C2011       C  0.09973583  0.80858479  0.22473306     0.18900
C2012       C  0.08966054  0.82912669  0.22774632    -0.17600
C2013       C  0.06771277  0.83271902  0.22097653    -0.19800
C2014       C  0.05549620  0.81584439  0.21104204     0.20400
C2015       C  0.03411890  0.81999606  0.20280174    -0.32900
C2016       C  0.02194460  0.80363032  0.19190733     0.01100
C2017       C  0.03096737  0.78222694  0.19055973    -0.24200
C2018       C  0.12006211  0.76731578  0.21904128    -0.28800
C2019       C  0.13274137  0.78514576  0.22703295     0.06800
C2020       C  0.12217670  0.80549318  0.23019248    -0.27400
H2021       H  0.09180692  0.73693378  0.20221252     0.11500
H2022       H  0.05322094  0.74339384  0.18983019     0.12600
H2023       H  0.09891923  0.84258153  0.23494676     0.11700
H2024       H  0.06045106  0.84888369  0.22305142     0.11000
H2025       H  0.02708169  0.83635124  0.20426959     0.16300
H2026       H  0.02159019  0.76946829  0.18229464     0.12300
H2027       H  0.12798827  0.75148097  0.21677193     0.15100
H2028       H  0.13156752  0.81915110  0.23686619     0.14900
C2029       C  0.85877973  0.79022016  0.16732366    -0.18000
C2030       C  0.88031783  0.79580652  0.16061073    -0.20200
C2031       C  0.89836518  0.79357908  0.17530668     0.20500
C2032       C  0.89477199  0.78488384  0.19669078    -0.03100
C2033       C  0.87295119  0.77925729  0.20347217    -0.06100
C2034       C  0.85483294  0.78247776  0.18885305     0.20800
C2035       C  0.86916869  0.77123690  0.22512065     0.18900
C2036       C  0.88738441  0.76821003  0.23949712    -0.17600
C2037       C  0.90899692  0.77379578  0.23277667    -0.19800
C2038       C  0.91282750  0.78253613  0.21155133     0.20400
C2039       C  0.93419556  0.78972758  0.20524257    -0.32900
C2040       C  0.93780690  0.79928367  0.18421033     0.01100
C2041       C  0.91979213  0.80044951  0.16915574    -0.24200
C2042       C  0.83302439  0.77883219  0.19629699    -0.28800
C2043       C  0.82902824  0.77185027  0.21814788     0.06800
C2044       C  0.84719151  0.76732971  0.23226700    -0.27400
H2045       H  0.84514584  0.79229303  0.15579590     0.11500
H2046       H  0.88278372  0.80227853  0.14405051     0.12600
H2047       H  0.88485668  0.76199772  0.25614139     0.11700
H2048       H  0.92266783  0.77172736  0.24438048     0.11000
H2049       H  0.94773271  0.78877848  0.21712392     0.16300
H2050       H  0.92231927  0.80708023  0.15266943     0.12300
H2051       H  0.81904055  0.78220812  0.18534566     0.15100
H2052       H  0.84414552  0.76210683  0.24917212     0.14900
C2053       C  0.00847372  0.87716964  0.09290680    -0.18000
C2054       C  0.00889881  0.89564918  0.07900653    -0.20200
C2055       C  0.99664009  0.91453562  0.08430888     0.20500
C2056       C  0.98420729  0.91500118  0.10405556    -0.03100
C2057       C  0.98356192  0.89622717  0.11797378    -0.06100
C2058       C  0.99568393  0.87720723  0.11228226     0.20800
C2059       C  0.97059367  0.89639733  0.13740632     0.18900
C2060       C  0.95895176  0.91558385  0.14305586    -0.17600
C2061       C  0.95978205  0.93426891  0.12937811    -0.19800
C2062       C  0.97213053  0.93407123  0.10970747     0.20400
C2063       C  0.97220276  0.95238277  0.09535077    -0.32900
C2064       C  0.98376699  0.95164921  0.07517182     0.01100
C2065       C  0.99623752  0.93277319  0.06997820    -0.24200
C2066       C  0.99470900  0.85850412  0.12596543    -0.28800
C2067       C  0.98150503  0.85834791  0.14511201     0.06800
C2068       C  0.96946218  0.87736336  0.15075046    -0.27400
H2069       H  0.01795555  0.86273669  0.08836217     0.11500
H2070       H  0.01865872  0.89509006  0.06398268     0.12600
H2071       H  0.94906914  0.91609748  0.15799734     0.11700
H2072       H  0.95048782  0.94878482  0.13403182     0.11000
H2073       H  0.96257847  0.96686568  0.09947156     0.16300
H2074       H  0.00550019  0.93220277  0.05462852     0.12300
H2075       H  0.00397693  0.84387310  0.12157344     0.15100
H2076       H  0.95948897  0.87739143  0.16565971     0.14900
C2077       C  0.21772918  0.95685199  0.76496711    -0.18000
C2078       C  0.22206470  0.93545889  0.75785400    -0.20200
C2079       C  0.22174912  0.91780660  0.77293022     0.20500
C2080       C  0.21757218  0.92177633  0.79550104    -0.03100
C2081       C  0.21349005  0.94338144  0.80271321    -0.06100
C2082       C  0.21320937  0.96096609  0.78730745     0.20800
C2083       C  0.20894326  0.94726338  0.82520425     0.18900
C2084       C  0.20900087  0.92967479  0.84036989    -0.17600
C2085       C  0.21282963  0.90823474  0.83318799    -0.19800
C2086       C  0.21679036  0.90409266  0.81075719     0.20400
C2087       C  0.21935841  0.88254451  0.80320681    -0.32900
C2088       C  0.22302991  0.87849316  0.78067344     0.01100
C2089       C  0.22484176  0.89619414  0.76572918    -0.24200
C2090       C  0.20744637  0.98215227  0.79434221    -0.28800
C2091       C  0.20180763  0.98588171  0.81653694     0.06800
C2092       C  0.20349191  0.96851162  0.83199520    -0.27400
H2093       H  0.21756552  0.97013804  0.75292545     0.11500
H2094       H  0.22521126  0.93265937  0.74046766     0.12600
H2095       H  0.20555748  0.93243688  0.85770759     0.11700
H2096       H  0.21231973  0.89485272  0.84511430     0.11000
H2097       H  0.21829551  0.86889283  0.81480418     0.16300
H2098       H  0.22768578  0.89306544  0.74833449     0.12300
H2099       H  0.20606717  0.99541699  0.78233253     0.15100
H2100       H  0.19957666  0.97137087  0.84922778     0.14900
C2101       C  0.20357892  0.14643057  0.83451620    -0.18000
C2102       C  0.19910750  0.12474650  0.84075752    -0.20200
C2103       C  0.20079389  0.10776329  0.82529550     0.20500
C2104       C  0.20706491  0.11257089  0.80334702    -0.03100
C2105       C  0.21166164  0.13446616  0.79705892    -0.06100
C2106       C  0.20982689  0.15144086  0.81272547     0.20800
C2107       C  0.21801943  0.13937013  0.77512066     0.18900
C2108       C  0.21954933  0.12234191  0.75966667    -0.17600
C2109       C  0.21483452  0.10062840  0.76587467    -0.19800
C2110       C  0.20859596  0.09554672  0.78766869     0.20400
C2111       C  0.20341760  0.07386131  0.79396843    -0.32900
C2112       C  0.19667343  0.06909840  0.81572038     0.01100
C2113       C  0.19596832  0.08610120  0.83136473    -0.24200
C2114       C  0.21424840  0.17314583  0.80635136    -0.28800
C2115       C  0.22071785  0.17818704  0.78456877     0.06800
C2116       C  0.22268493  0.16120486  0.76904753    -0.27400
H2117       H  0.20212630  0.15928939  0.84672710     0.11500
H2118       H  0.19421061  0.12126982  0.85765905     0.12600
H2119       H  0.22433666  0.12582786  0.74274109     0.11700
H2120       H  0.21602556  0.08780801  0.75360511     0.11000
H2121       H  0.20383391  0.06088363  0.78180389     0.16300
H2122       H  0.19121295  0.08250472  0.84829397     0.12300
H2123       H  0.21293594  0.18612596  0.81846845     0.15100
H2124       H  0.22755826  0.16502991  0.75220570     0.14900
C2125       C  0.12928263  0.00474336  0.91444448    -0.18000
C2126       C  0.11257471  0.00695268  0.93026576    -0.20200
C2127       C  0.09336834  0.01929292  0.92547578     0.20500
C2128       C  0.09073101  0.02927812  0.90447872    -0.03100
C2129       C  0.10767622  0.02725355  0.88862093    -0.06100
C2130       C  0.12706870  0.01498163  0.89368479     0.20800
C2131       C  0.10533251  0.03771587  0.86781879     0.18900
C2132       C  0.08585620  0.04958525  0.86283787    -0.17600
C2133       C  0.06885116  0.05127867  0.87845745    -0.19800
C2134       C  0.07120976  0.04132476  0.89935744     0.20400
C2135       C  0.05438561  0.04309753  0.91521977    -0.32900
C2136       C  0.05710412  0.03332864  0.93620798     0.01100
C2137       C  0.07666684  0.02163959  0.94127895    -0.24200
C2138       C  0.14411857  0.01358374  0.87807523    -0.28800
C2139       C  0.14217479  0.02464704  0.85770690     0.06800
C2140       C  0.12268327  0.03643111  0.85252592    -0.27400
H2141       H  0.14404415  0.99523117  0.91852854     0.11500
H2142       H  0.11468696  0.99904299  0.94626799     0.12600
H2143       H  0.08381563  0.05762145  0.84689212     0.11700
H2144       H  0.05394299  0.06052295  0.87426427     0.11000
H2145       H  0.03922932  0.05208632  0.91129018     0.16300
H2146       H  0.07857950  0.01374761  0.95733030     0.12300
H2147       H  0.15929664  0.00466633  0.88208494     0.15100
H2148       H  0.12121680  0.04482062  0.83668775     0.14900
C2149       C  0.89137878  0.78658746  0.76110223    -0.18000
C2150       C  0.91301021  0.79464187  0.76429123    -0.20200
C2151       C  0.91640751  0.81627455  0.77147823     0.20500
C2152       C  0.89778983  0.82997536  0.77517683    -0.03100
C2153       C  0.87602792  0.82173102  0.77243072    -0.06100
C2154       C  0.87278501  0.79993294  0.76533491     0.20800
C2155       C  0.85752262  0.83526679  0.77704931     0.18900
C2156       C  0.86083139  0.85702648  0.78369795    -0.17600
C2157       C  0.88235938  0.86531113  0.78599566    -0.19800
C2158       C  0.90087199  0.85184070  0.78203340     0.20400
C2159       C  0.92238965  0.85975378  0.78548240    -0.32900
C2160       C  0.94103082  0.84592664  0.78325048     0.01100
C2161       C  0.93798154  0.82429668  0.77568269    -0.24200
C2162       C  0.85101371  0.79192349  0.76266760    -0.28800
C2163       C  0.83256087  0.80533153  0.76751510     0.06800
C2164       C  0.83598948  0.82688545  0.77487073    -0.27400
H2165       H  0.88918850  0.76982603  0.75560031     0.11500
H2166       H  0.92707679  0.78390063  0.76128463     0.12600
H2167       H  0.84676364  0.86762645  0.78717207     0.11700
H2168       H  0.88453720  0.88214201  0.79129202     0.11000
H2169       H  0.92458736  0.87665895  0.79055392     0.16300
H2170       H  0.95223404  0.81350305  0.77387312     0.12300
H2171       H  0.84841805  0.77526230  0.75700035     0.15100
H2172       H  0.82182950  0.83739611  0.77833678     0.14900
C2173       C  0.10258229  0.86727625  0.75998587    -0.18000
C2174       C  0.08103073  0.87462584  0.76454449    -0.20200
C2175       C  0.06311047  0.85985289  0.76465197     0.20500
C2176       C  0.06671998  0.83767446  0.75903057    -0.03100
C2177       C  0.08840607  0.83035723  0.75389017    -0.06100
C2178       C  0.10646892  0.84513528  0.75503678     0.20800
C2179       C  0.09217436  0.80806852  0.74868574     0.18900
C2180       C  0.07412881  0.79342989  0.74826678    -0.17600
C2181       C  0.05269813  0.80059900  0.75384286    -0.19800
C2182       C  0.04889273  0.82260222  0.75959703     0.20400
C2183       C  0.02788143  0.82955300  0.76698835    -0.32900
C2184       C  0.02442837  0.85143807  0.77366801     0.01100
C2185       C  0.04192113  0.86665952  0.77143137    -0.24200
C2186       C  0.12819864  0.83733868  0.75215820    -0.28800
C2187       C  0.13208799  0.81511137  0.74759400     0.06800
C2188       C  0.11404415  0.80066102  0.74508289    -0.27400
H2189       H  0.11628437  0.87882094  0.76078739     0.11500
H2190       H  0.07851071  0.89171328  0.76878180     0.12600
H2191       H  0.07670743  0.77627884  0.74431710     0.11700
H2192       H  0.03918193  0.78881951  0.75411138     0.11000
H2193       H  0.01461271  0.81761417  0.76870460     0.16300
H2194       H  0.03931653  0.88367426  0.77592353     0.12300
H2195       H  0.14220276  0.84843480  0.75399267     0.15100
H2196       H  0.11715661  0.78344851  0.74173611     0.14900
C2197       C  0.96709461  0.90534305  0.91212080    -0.18000
C2198       C  0.96642394  0.89165979  0.89364734    -0.20200
C2199       C  0.97604328  0.89838819  0.87358596     0.20500
C2200       C  0.98624431  0.91920756  0.87203256    -0.03100
C2201       C  0.98659878  0.93316110  0.89057800    -0.06100
C2202       C  0.97712389  0.92611435  0.91076789     0.20800
C2203       C  0.99635673  0.95416635  0.88888149     0.18900
C2204       C  0.00585687  0.96096417  0.86878337    -0.17600
C2205       C  0.00580447  0.94700800  0.85050690    -0.19800
C2206       C  0.99609438  0.92608878  0.85196561     0.20400
C2207       C  0.99603012  0.91194747  0.83372862    -0.32900
C2208       C  0.98585415  0.89120251  0.83516064     0.01100
C2209       C  0.97573758  0.88462427  0.85509305    -0.24200
C2210       C  0.97752699  0.94007759  0.92913556    -0.28800
C2211       C  0.98672917  0.96124038  0.92740762     0.06800
C2212       C  0.99624393  0.96808907  0.90723585    -0.27400
H2213       H  0.95964594  0.89972272  0.92744591     0.11500
H2214       H  0.95848948  0.87573788  0.89509287     0.12600
H2215       H  0.01338120  0.97707180  0.86721124     0.11700
H2216       H  0.01332970  0.95259686  0.83520828     0.11000
H2217       H  0.00351941  0.91720151  0.81828055     0.16300
H2218       H  0.96789238  0.86862382  0.85626219     0.12300
H2219       H  0.97002526  0.93474784  0.94454958     0.15100
H2220       H  0.00353888  0.98432530  0.90579110     0.14900
C2221       C  0.88978341  0.18844205  0.76682874    -0.18000
C2222       C  0.86843848  0.19524052  0.76031035    -0.20200
C2223       C  0.86445280  0.21718854  0.75415009     0.20500
C2224       C  0.88220697  0.23236406  0.75415477    -0.03100
C2225       C  0.90362414  0.22561786  0.76126420    -0.06100
C2226       C  0.90739187  0.20357838  0.76770648     0.20800
C2227       C  0.92107907  0.24106459  0.76251047     0.18900
C2228       C  0.91714700  0.26293432  0.75600626    -0.17600
C2229       C  0.89603636  0.26953470  0.74856308    -0.19800
C2230       C  0.87840055  0.25445438  0.74778329     0.20400
C2231       C  0.85682613  0.26128338  0.74173618    -0.32900
C2232       C  0.83895206  0.24650927  0.74293259     0.01100
C2233       C  0.84288905  0.22444165  0.74881689    -0.24200
C2234       C  0.92849357  0.19721516  0.77557929    -0.28800
C2235       C  0.94575148  0.21273165  0.77787528     0.06800
C2236       C  0.94195540  0.23455883  0.77087903    -0.27400
H2237       H  0.89239525  0.17145040  0.77169413     0.11500
H2238       H  0.85499704  0.18338016  0.76029501     0.12600
H2239       H  0.93036370  0.27500647  0.75687735     0.11700
H2240       H  0.89338480  0.28656253  0.74386193     0.11000
H2241       H  0.85364053  0.27840321  0.73770291     0.16300
H2242       H  0.82897152  0.21314348  0.75002218     0.12300
H2243       H  0.93129894  0.18025867  0.78047767     0.15100
H2244       H  0.95494441  0.24674889  0.77279825     0.14900
C2245       C  0.06623403  0.22840444  0.73967074    -0.18000
C2246       C  0.08843629  0.23400426  0.73507269    -0.20200
C2247       C  0.10311150  0.23985531  0.75221144     0.20500
C2248       C  0.09507099  0.24050303  0.77414043    -0.03100
C2249       C  0.07269671  0.23498292  0.77875310    -0.06100
C2250       C  0.05825233  0.22857610  0.76149461     0.20800
C2251       C  0.06491987  0.23552676  0.80073593     0.18900
C2252       C  0.07926974  0.24203551  0.81782026    -0.17600
C2253       C  0.10137887  0.24740771  0.81328014    -0.19800
C2254       C  0.10944855  0.24642627  0.79157700     0.20400
C2255       C  0.13174301  0.25111608  0.78714531    -0.32900
C2256       C  0.14018344  0.25016830  0.76549163     0.01100
C2257       C  0.12567297  0.24487555  0.74795105    -0.24200
C2258       C  0.03636717  0.22183691  0.76651119    -0.28800
C2259       C  0.02892196  0.22133816  0.78859937     0.06800
C2260       C  0.04311510  0.22898718  0.80542429    -0.27400
H2261       H  0.05537370  0.22366923  0.72616867     0.11500
H2262       H  0.09419275  0.23351675  0.71812412     0.12600
H2263       H  0.07348920  0.24262981  0.83476178     0.11700
H2264       H  0.11224598  0.25211265  0.82679633     0.11000
H2265       H  0.14259075  0.25566159  0.80073469     0.16300
H2266       H  0.13200368  0.24422746  0.73120576     0.12300
H2267       H  0.02552876  0.21605451  0.75341486     0.15100
H2268       H  0.03733566  0.22929013  0.82238842     0.14900
C2269       C  0.02005818  0.11589811  0.88526275    -0.18000
C2270       C  0.02024536  0.12955950  0.86656462    -0.20200
C2271       C  0.00285878  0.14459936  0.86274191     0.20500
C2272       C  0.98517367  0.14601884  0.87797133    -0.03100
C2273       C  0.98509350  0.13239445  0.89697969    -0.06100
C2274       C  0.00255995  0.11718222  0.90051503     0.20800
C2275       C  0.96737316  0.13374188  0.91223866     0.18900
C2276       C  0.94981818  0.14851949  0.90818877    -0.17600
C2277       C  0.94986396  0.16196773  0.88928837    -0.19800
C2278       C  0.96748081  0.16089335  0.87411661     0.20400
C2279       C  0.96771912  0.17441825  0.85517617    -0.32900
C2280       C  0.98537802  0.17320732  0.83994447     0.01100
C2281       C  0.00280815  0.15812484  0.84387212    -0.24200
C2282       C  0.00195109  0.10317506  0.91897537    -0.28800
C2283       C  0.98434538  0.10441828  0.93415111     0.06800
C2284       C  0.96727861  0.11991444  0.93096051    -0.27400
H2285       H  0.03355300  0.10425680  0.88774715     0.11500
H2286       H  0.03392982  0.12826393  0.85500927     0.12600
H2287       H  0.93598750  0.14960625  0.91959461     0.11700
H2288       H  0.93608749  0.17320880  0.88652390     0.11000
H2289       H  0.95433996  0.18614334  0.85250304     0.16300
H2290       H  0.01627158  0.15671184  0.83207295     0.12300
H2291       H  0.01497799  0.09098455  0.92140080     0.15100
H2292       H  0.95347122  0.12045650  0.94245985     0.14900
C2293       C  0.74976213  0.91804542  0.80897671    -0.18000
C2294       C  0.75513625  0.93965554  0.81434239    -0.20200
C2295       C  0.76286136  0.95419498  0.79801497     0.20500
C2296       C  0.76437172  0.94722570  0.77586027    -0.03100
C2297       C  0.75879512  0.92536653  0.77040220    -0.06100
C2298       C  0.75184827  0.91068716  0.78715992     0.20800
C2299       C  0.76076951  0.91803508  0.74838609     0.18900
C2300       C  0.76790295  0.93289420  0.73196638    -0.17600
C2301       C  0.77356428  0.95457509  0.73740547    -0.19800
C2302       C  0.77220154  0.96182876  0.75937540     0.20400
C2303       C  0.77946919  0.98298791  0.76541607    -0.32900
C2304       C  0.77924068  0.98937979  0.78776320     0.01100
C2305       C  0.77010737  0.97521541  0.80373124    -0.24200
C2306       C  0.74749189  0.88875778  0.78199147    -0.28800
C2307       C  0.74971059  0.88105562  0.76022604     0.06800
C2308       C  0.75602939  0.89590462  0.74336670    -0.27400
H2309       H  0.74430838  0.90696874  0.82198314     0.11500
H2310       H  0.75379791  0.94483619  0.83139238     0.12600
H2311       H  0.76947346  0.92764240  0.71496324     0.11700
H2312       H  0.77944261  0.96553841  0.72448956     0.11000
H2313       H  0.78646959  0.99393525  0.75304471     0.16300
H2314       H  0.76961298  0.98027078  0.82088749     0.12300
H2315       H  0.74247538  0.87755729  0.79508827     0.15100
H2316       H  0.75794513  0.89009820  0.72657997     0.14900
C2317       C  0.81680166  0.12642489  0.78086348    -0.18000
C2318       C  0.81086325  0.14847971  0.77816235    -0.20200
C2319       C  0.78843237  0.15446660  0.77546798     0.20500
C2320       C  0.77178549  0.13810649  0.77538192    -0.03100
C2321       C  0.77775660  0.11586491  0.77844089    -0.06100
C2322       C  0.80036900  0.11006018  0.78117527     0.20800
C2323       C  0.76111947  0.09949468  0.77898869     0.18900
C2324       C  0.73870198  0.10550637  0.77594854    -0.17600
C2325       C  0.73280705  0.12754395  0.77248667    -0.19800
C2326       C  0.74920255  0.14396770  0.77228451     0.20400
C2327       C  0.74347474  0.16612721  0.76897503    -0.32900
C2328       C  0.76000864  0.18245976  0.76929490     0.01100
C2329       C  0.78239962  0.17652581  0.77269890    -0.24200
C2330       C  0.80616275  0.08805757  0.78474377    -0.28800
C2331       C  0.78965809  0.07174584  0.78656110     0.06800
C2332       C  0.76716371  0.07752321  0.78314668    -0.27400
H2333       H  0.83423455  0.12219007  0.78299830     0.11500
H2334       H  0.82381324  0.16085997  0.77819041     0.12600
H2335       H  0.72571457  0.09316448  0.77629614     0.11700
H2336       H  0.71539943  0.13176196  0.77012848     0.11000
H2337       H  0.72618813  0.17070580  0.76631686     0.16300
H2338       H  0.79522701  0.18906496  0.77256940     0.12300
H2339       H  0.82358178  0.08370504  0.78681739     0.15100
H2340       H  0.75430009  0.06513248  0.78466679     0.14900
C2341       C  0.90717488  0.04566679  0.86736015    -0.18000
C2342       C  0.89188587  0.04521036  0.84983652    -0.20200
C2343       C  0.87107864  0.03504874  0.85248383     0.20500
C2344       C  0.86575399  0.02489157  0.87285004    -0.03100
C2345       C  0.88110055  0.02553136  0.89059503    -0.06100
C2346       C  0.90184844  0.03607702  0.88785340     0.20800
C2347       C  0.87554722  0.01587954  0.91114531     0.18900
C2348       C  0.85497612  0.00523262  0.91361495    -0.17600
C2349       C  0.83981204  0.00449419  0.89599278    -0.19800
C2350       C  0.84495096  0.01442078  0.87561349     0.20400
C2351       C  0.82951977  0.01441269  0.85808532    -0.32900
C2352       C  0.83450675  0.02504880  0.83799649     0.01100
C2353       C  0.85536269  0.03517767  0.83525549    -0.24200
C2354       C  0.91681011  0.03701608  0.90570164    -0.28800
C2355       C  0.91121617  0.02776149  0.92635918     0.06800
C2356       C  0.89057189  0.01717107  0.92891169    -0.27400
H2357       H  0.92307215  0.05374328  0.86495855     0.11500
H2358       H  0.89626349  0.05297126  0.83425969     0.12600
H2359       H  0.85053430  0.99761967  0.92924792     0.11700
H2360       H  0.82395004  0.99635596  0.89838232     0.11000
H2361       H  0.81336305  0.00676227  0.86026369     0.16300
H2362       H  0.85924866  0.04327729  0.81970255     0.12300
H2363       H  0.93269496  0.04522226  0.90358717     0.15100
H2364       H  0.88628477  0.00971325  0.94467469     0.14900
C2365       C  0.22301890  0.78704583  0.10054575    -0.18000
C2366       C  0.21994972  0.79363333  0.07843939    -0.20200
C2367       C  0.21562948  0.81575070  0.07306487     0.20500
C2368       C  0.21480154  0.83138195  0.09018179    -0.03100
C2369       C  0.21711173  0.82463249  0.11250027    -0.06100
C2370       C  0.22131999  0.80236345  0.11773343     0.20800
C2371       C  0.21486302  0.84016402  0.12958061     0.18900
C2372       C  0.21145570  0.86238119  0.12423418    -0.17600
C2373       C  0.20990007  0.86915151  0.10215008    -0.19800
C2374       C  0.21110387  0.85373058  0.08507369     0.20400
C2375       C  0.20764950  0.86022065  0.06308052    -0.32900
C2376       C  0.20633085  0.84460001  0.04606031     0.01100
C2377       C  0.21119261  0.82241400  0.05107802    -0.24200
C2378       C  0.22356511  0.79587130  0.14004524    -0.28800
C2379       C  0.22066156  0.81123182  0.15711879     0.06800
C2380       C  0.21612110  0.83327173  0.15171969    -0.27400
H2381       H  0.22628471  0.76988158  0.10422862     0.11500
H2382       H  0.22076903  0.78138678  0.06555968     0.12600
H2383       H  0.20994099  0.87452984  0.13714762     0.11700
H2384       H  0.20710497  0.88639218  0.09844810     0.11000
H2385       H  0.20479351  0.87745685  0.05936415     0.16300
H2386       H  0.21036063  0.81018605  0.03817757     0.12300
H2387       H  0.22709769  0.77883958  0.14416481     0.15100
H2388       H  0.21420715  0.84520255  0.16480997     0.14900
C2389       C  0.17703162  0.81988470  0.88786816    -0.18000
C2390       C  0.17197231  0.82547330  0.90956347    -0.20200
C2391       C  0.18905115  0.82784501  0.92523176     0.20500
C2392       C  0.21144649  0.82447123  0.91911732    -0.03100
C2393       C  0.21653702  0.81836654  0.89723040    -0.06100
C2394       C  0.19920741  0.81621606  0.88164540     0.20800
C2395       C  0.23885650  0.81450105  0.89092782     0.18900
C2396       C  0.25587528  0.81706448  0.90674037    -0.17600
C2397       C  0.25085381  0.82356166  0.92840685    -0.19800
C2398       C  0.22867925  0.82734032  0.93479179     0.20400
C2399       C  0.22337952  0.83439817  0.95632700    -0.32900
C2400       C  0.20101574  0.83827795  0.96225533     0.01100
C2401       C  0.18402617  0.83404376  0.94677833    -0.24200
C2402       C  0.20419581  0.81040380  0.86001784    -0.28800
C2403       C  0.22632131  0.80644993  0.85327497     0.06800
C2404       C  0.24365275  0.80833365  0.86894591    -0.27400
H2405       H  0.16357623  0.81833672  0.87596258     0.11500
H2406       H  0.15471589  0.82819247  0.91402746     0.12600
H2407       H  0.27310869  0.81422687  0.90230467     0.11700
H2408       H  0.26433970  0.82565790  0.94017073     0.11000
H2409       H  0.23660402  0.83758028  0.96813126     0.16300
H2410       H  0.16670968  0.83624940  0.95133902     0.12300
H2411       H  0.19050266  0.80884959  0.84839681     0.15100
H2412       H  0.26073023  0.80541508  0.86399317     0.14900
C2413       C  0.11708259  0.95753430  0.02635503    -0.18000
C2414       C  0.13546474  0.94341419  0.02573105    -0.20200
C2415       C  0.13418684  0.92344684  0.01437757     0.20500
C2416       C  0.11422844  0.91769639  0.00339274    -0.03100
C2417       C  0.09562332  0.93189238  0.00413595    -0.06100
C2418       C  0.09712045  0.95190087  0.01564995     0.20800
C2419       C  0.07552760  0.92602248  0.99346746     0.18900
C2420       C  0.07432868  0.90611981  0.98195604    -0.17600
C2421       C  0.09281338  0.89208451  0.98112871    -0.19800
C2422       C  0.11279109  0.89768480  0.99185177     0.20400
C2423       C  0.13126341  0.88352382  0.99149611    -0.32900
C2424       C  0.15102100  0.88898888  0.00278004     0.01100
C2425       C  0.15241722  0.90901310  0.01405937    -0.24200
C2426       C  0.07866325  0.96597964  0.01622740    -0.28800
C2427       C  0.05857810  0.96031342  0.00562577     0.06800
C2428       C  0.05705367  0.94019998  0.99443314    -0.27400
H2429       H  0.11845478  0.97284409  0.03528390     0.11500
H2430       H  0.15066128  0.94807001  0.03421887     0.12600
H2431       H  0.05907480  0.90138745  0.97361431     0.11700
H2432       H  0.09144072  0.87677521  0.97220431     0.11000
H2433       H  0.13013900  0.86799272  0.98290009     0.16300
H2434       H  0.16772404  0.91330154  0.02258341     0.12300
H2435       H  0.07991774  0.98138422  0.02503420     0.15100
H2436       H  0.04168345  0.93582704  0.98607453     0.14900
C2437       C  0.72737985  0.27345394  0.09592669    -0.18000
C2438       C  0.73448679  0.26761755  0.07471711    -0.20200
C2439       C  0.73957106  0.24567042  0.06978074     0.20500
C2440       C  0.73703836  0.22937327  0.08632124    -0.03100
C2441       C  0.73026282  0.23532623  0.10788207    -0.06100
C2442       C  0.72553974  0.25751719  0.11274389     0.20800
C2443       C  0.72909031  0.21921778  0.12476434     0.18900
C2444       C  0.73355844  0.19716734  0.11968912    -0.17600
C2445       C  0.73979718  0.19121829  0.09824661    -0.19800
C2446       C  0.74201880  0.20725227  0.08155495     0.20400
C2447       C  0.74992935  0.20167050  0.06046423    -0.32900
C2448       C  0.75368644  0.21798224  0.04415778     0.01100
C2449       C  0.74789786  0.23989935  0.04887351    -0.24200
C2450       C  0.72015969  0.26352914  0.13454355    -0.28800
C2451       C  0.72043777  0.24778274  0.15169575     0.06800
C2452       C  0.72444915  0.22558970  0.14658013    -0.27400
H2453       H  0.72388411  0.29056381  0.09933108     0.11500
H2454       H  0.73630521  0.28035634  0.06223376     0.12600
H2455       H  0.73260809  0.18455679  0.13240829     0.11700
H2456       H  0.74348935  0.17413611  0.09487803     0.11000
H2457       H  0.75385530  0.18465732  0.05698356     0.16300
H2458       H  0.75086571  0.25267297  0.03665247     0.12300
H2459       H  0.71735259  0.28066390  0.13845593     0.15100
H2460       H  0.72469665  0.21340339  0.15977305     0.14900
C2461       C  0.79811725  0.24885526  0.91169054    -0.18000
C2462       C  0.79383914  0.25392433  0.88945748    -0.20200
C2463       C  0.77198995  0.25341121  0.88106217     0.20500
C2464       C  0.75420061  0.24818701  0.89530097    -0.03100
C2465       C  0.75857727  0.24270268  0.91774901    -0.06100
C2466       C  0.78066438  0.24286905  0.92588076     0.20800
C2467       C  0.74095223  0.23657980  0.93188329     0.18900
C2468       C  0.71903283  0.23673133  0.92357571    -0.17600
C2469       C  0.71465757  0.24253703  0.90144053    -0.19800
C2470       C  0.73213089  0.24806007  0.88702927     0.20400
C2471       C  0.72803078  0.25306327  0.86446985    -0.32900
C2472       C  0.74585223  0.25749585  0.84996910     0.01100
C2473       C  0.76773271  0.25779006  0.85861076    -0.24200
C2474       C  0.78504951  0.23633826  0.94781679    -0.28800
C2475       C  0.76777380  0.22902494  0.96177106     0.06800
C2476       C  0.74564322  0.22978137  0.95380413    -0.27400
H2477       H  0.81516592  0.24916054  0.91767156     0.11500
H2478       H  0.80767816  0.25806725  0.87876006     0.12600
H2479       H  0.70525043  0.23214878  0.93415985     0.11700
H2480       H  0.69759894  0.24235602  0.89549878     0.11000
H2481       H  0.71112532  0.25285039  0.85808671     0.16300
H2482       H  0.78160213  0.26154682  0.84779483     0.12300
H2483       H  0.80209336  0.23628289  0.95385546     0.15100
H2484       H  0.73219517  0.22414913  0.96431433     0.14900
C2485       C  0.84277408  0.10340608  0.02291390    -0.18000
C2486       C  0.82574475  0.11914706  0.02370991    -0.20200
C2487       C  0.82924988  0.14051137  0.01551396     0.20500
C2488       C  0.85027185  0.14618118  0.00679416    -0.03100
C2489       C  0.86758133  0.13038979  0.00633127    -0.06100
C2490       C  0.86371805  0.10882043  0.01417095     0.20800
C2491       C  0.88870423  0.13617848  0.99795091     0.18900
C2492       C  0.89233316  0.15764783  0.99011242    -0.17600
C2493       C  0.87508887  0.17317102  0.99022242    -0.19800
C2494       C  0.85396163  0.16757013  0.99837263     0.20400
C2495       C  0.83641670  0.18289692  0.99805492    -0.32900
C2496       C  0.81534354  0.17729324  0.00648724     0.01100
C2497       C  0.81202298  0.15618858  0.01556497    -0.24200
C2498       C  0.88088391  0.09310140  0.01323763    -0.28800
C2499       C  0.90207226  0.09879580  0.00508055     0.06800
C2500       C  0.90582678  0.12042529  0.99755023    -0.27400
H2501       H  0.83955870  0.08697917  0.02915676     0.11500
H2502       H  0.80973338  0.11453146  0.03052095     0.12600
H2503       H  0.90847968  0.16239193  0.98371372     0.11700
H2504       H  0.87826569  0.18955979  0.98386148     0.11000
H2505       H  0.83912933  0.19923408  0.99131076     0.16300
H2506       H  0.79579569  0.15178343  0.02203666     0.12300
H2507       H  0.87788823  0.07654999  0.01928487     0.15100
H2508       H  0.92204048  0.12494540  0.99112292     0.14900
C2509       C  0.73938654  0.79524798  0.07315514    -0.18000
C2510       C  0.73192352  0.79249312  0.09497221    -0.20200
C2511       C  0.74675868  0.79459471  0.11288247     0.20500
C2512       C  0.76940462  0.79914894  0.10867324    -0.03100
C2513       C  0.77707097  0.80114354  0.08666302    -0.06100
C2514       C  0.76193687  0.79964673  0.06879367     0.20800
C2515       C  0.79984918  0.80503025  0.08259865     0.18900
C2516       C  0.81470223  0.80717268  0.10041384    -0.17600
C2517       C  0.80693347  0.80614769  0.12213033    -0.19800
C2518       C  0.78440354  0.80197812  0.12645477     0.20400
C2519       C  0.77670386  0.80046578  0.14826660    -0.32900
C2520       C  0.75434141  0.79524315  0.15270293     0.01100
C2521       C  0.73943221  0.79225171  0.13489576    -0.24200
C2522       C  0.76954279  0.80326479  0.04702334    -0.28800
C2523       C  0.79220737  0.80788905  0.04296484     0.06800
C2524       C  0.80730323  0.80768142  0.06085520    -0.27400
H2525       H  0.72749705  0.79397040  0.05968795     0.11500
H2526       H  0.71446787  0.78901617  0.09784727     0.12600
H2527       H  0.83222782  0.81033201  0.09755337     0.11700
H2528       H  0.81850509  0.80880912  0.13556384     0.11000
H2529       H  0.78833925  0.80261097  0.16185402     0.16300
H2530       H  0.72213441  0.78835552  0.13819239     0.12300
H2531       H  0.75770340  0.80339034  0.03343307     0.15100
H2532       H  0.82487387  0.81056134  0.05793130     0.14900
C2533       C  0.75536664  0.82794463  0.91276922    -0.18000
C2534       C  0.74831740  0.82184135  0.89168119    -0.20200
C2535       C  0.75406688  0.80121564  0.88322894     0.20500
C2536       C  0.76610433  0.78610456  0.89643018    -0.03100
C2537       C  0.77295347  0.79216632  0.91793890    -0.06100
C2538       C  0.76801085  0.81340235  0.92584191     0.20800
C2539       C  0.78545605  0.77737228  0.93116408     0.18900
C2540       C  0.79054294  0.75645305  0.92282882    -0.17600
C2541       C  0.78401536  0.75055669  0.90133270    -0.19800
C2542       C  0.77208116  0.76538079  0.88780440     0.20400
C2543       C  0.76689128  0.76038673  0.86555452    -0.32900
C2544       C  0.75603063  0.77608618  0.85205962     0.01100
C2545       C  0.74891647  0.79598249  0.86138388    -0.24200
C2546       C  0.77632970  0.82002498  0.94639361    -0.28800
C2547       C  0.78914444  0.80563954  0.95949272     0.06800
C2548       C  0.79322734  0.78410946  0.95210674    -0.27400
H2549       H  0.75129483  0.84421733  0.91868842     0.11500
H2550       H  0.73896805  0.83354316  0.88169483     0.12600
H2551       H  0.80007425  0.74483553  0.93273276     0.11700
H2552       H  0.78871002  0.73455788  0.89513119     0.11000
H2553       H  0.77231010  0.74497428  0.85848824     0.16300
H2554       H  0.74009161  0.80794802  0.85120725     0.12300
H2555       H  0.77311483  0.83655677  0.95216374     0.15100
H2556       H  0.80317167  0.77301678  0.96223549     0.14900
C2557       C  0.84170763  0.91680062  0.97609261    -0.18000
C2558       C  0.85558146  0.93524362  0.97737810    -0.20200
C2559       C  0.87540211  0.93445921  0.98979791     0.20500
C2560       C  0.88124901  0.91484112  0.00107895    -0.03100
C2561       C  0.86711575  0.89629177  0.99998020    -0.06100
C2562       C  0.84728826  0.89725872  0.98733723     0.20800
C2563       C  0.87280943  0.87681986  0.01156417     0.18900
C2564       C  0.89266822  0.87597283  0.02391686    -0.17600
C2565       C  0.90681147  0.89421907  0.02473943    -0.19800
C2566       C  0.90126602  0.91370295  0.01336834     0.20400
C2567       C  0.91552113  0.93195847  0.01385619    -0.32900
C2568       C  0.90996473  0.95153668  0.00248805     0.01100
C2569       C  0.88963338  0.95279889  0.99084901    -0.24200
C2570       C  0.83328329  0.87877503  0.98637113    -0.28800
C2571       C  0.83862017  0.85948805  0.99824299     0.06800
C2572       C  0.85845417  0.85862864  0.01074952    -0.27400
H2573       H  0.82654246  0.91785280  0.96634162     0.11500
H2574       H  0.85085884  0.95010708  0.96853371     0.12600
H2575       H  0.89730028  0.86116369  0.03290493     0.11700
H2576       H  0.92210941  0.89308823  0.03428312     0.11000
H2577       H  0.93103498  0.93092353  0.02308656     0.16300
H2578       H  0.88527577  0.96777532  0.98199120     0.12300
H2579       H  0.81788137  0.87958351  0.97694937     0.15100
H2580       H  0.86262914  0.84376893  0.01990098     0.14900
loop_ 
_geom_bond_atom_site_label_1 
_geom_bond_atom_site_label_2 
_geom_bond_distance 
_geom_bond_site_symmetry_2 
_ccdc_geom_bond_type 
C1            C2   1.410       .  A
C1            C6   1.409       .  A
C1         C2523   1.493       .  S
C2            C3   1.408   1_554  A
C2            H7   1.083       .  S
C3            C4   1.409       .  A
C3         C2547   1.482       .  S
C4            C5   1.403       .  A
C4            H8   1.084       .  S
C5            C6   1.400   1_556  A
C5         C2571   1.487       .  S
C6            H9   1.083       .  S
C10          C11   1.409       .  A
C10          C15   1.416       .  A
C10        C2448   1.499       .  S
C11          C12   1.402       .  A
C11          H16   1.083       .  S
C12          C13   1.403   1_554  A
C12        C2496   1.487       .  S
C13          C14   1.409       .  A
C13          H17   1.084       .  S
C14          C15   1.413   1_556  A
C14        C2475   1.498       .  S
C15          H18   1.083       .  S
C19          C20   1.410       .  A
C19          C24   1.414       .  A
C19        C2376   1.494       .  S
C20          C21   1.397       .  A
C20          H25   1.083       .  S
C21          C22   1.393   1_554  A
C21        C2424   1.480       .  S
C22          C23   1.407       .  A
C22          H26   1.084       .  S
C23          C24   1.412   1_556  A
C23        C2400   1.489       .  S
C24          H27   1.083       .  S
C28          C29   1.410       .  A
C28          C33   1.406       .  A
C28        C2331   1.486       .  S
C29          C30   1.407       .  A
C29          H34   1.083       .  S
C30          C31   1.408       .  A
C30        C2304   1.482   1_545  S
C31          C32   1.399       .  A
C31          H35   1.084   1_545  S
C32          C33   1.397       .  A
C32        C2352   1.480       .  S
C33          H36   1.084       .  S
C37          C38   1.409       .  A
C37          C42   1.412       .  A
C37        C2235   1.492       .  S
C38          C39   1.403       .  A
C38          H43   1.082       .  S
C39          C40   1.402   1_655  A
C39        C2280   1.490       .  S
C40          C41   1.406       .  A
C40          H44   1.083       .  S
C41          C42   1.406   1_455  A
C41        C2259   1.490       .  S
C42          H45   1.083       .  S
C46          C47   1.405       .  A
C46          C51   1.406       .  A
C46        C2160   1.486       .  S
C47          C48   1.397       .  A
C47          H52   1.083       .  S
C48          C49   1.402   1_655  A
C48        C2208   1.484       .  S
C49          C50   1.412       .  A
C49          H53   1.083       .  S
C50          C51   1.409   1_455  A
C50        C2184   1.490       .  S
C51          H54   1.083       .  S
C55          C56   1.401       .  A
C55          C60   1.410       .  A
C55        C2112   1.484       .  S
C56          C57   1.393       .  A
C56          H61   1.084       .  S
C57          C58   1.394       .  A
C57        C2139   1.470       .  S
C58          C59   1.405       .  A
C58          H62   1.084   1_545  S
C59          C60   1.412       .  A
C59        C2091   1.483   1_545  S
C60          H63   1.083       .  S
C64          C65   1.414       .  A
C64          C69   1.417       .  A
C64        C2040   1.500       .  S
C65          C66   1.402       .  A
C65          H70   1.083       .  S
C66          C67   1.399   1_655  A
C66        C2067   1.486       .  S
C67          C68   1.406       .  A
C67          H71   1.084       .  S
C68          C69   1.408   1_455  A
C68        C2016   1.490       .  S
C69          H72   1.082       .  S
C73          C74   1.403       .  A
C73          C78   1.407       .  A
C73        C1968   1.480       .  S
C74          C75   1.393       .  A
C74          H79   1.084       .  S
C75          C76   1.396       .  A
C75        C1992   1.469       .  S
C76          C77   1.404       .  A
C76          H80   1.084   1_545  S
C77          C78   1.405       .  A
C77        C1947   1.474   1_545  S
C78          H81   1.083       .  S
C82          C83   1.406       .  A
C82          C87   1.413       .  A
C82        C1896   1.499       .  S
C83          C84   1.398       .  A
C83          H88   1.083       .  S
C84          C85   1.401       .  A
C84        C1872   1.488       .  S
C85          C86   1.414       .  A
C85          H89   1.081   1_655  S
C86          C87   1.418       .  A
C86        C1923   1.505   1_655  S
C87          H90   1.082       .  S
Zr91         O92   2.440       .  S
Zr91         O93   2.441       .  S
Zr91         O94   2.424       .  S
Zr91         O97   2.428       .  S
Zr91         O99   2.382       .  S
Zr91        O100   2.384       .  S
Zr91        O101   2.404       .  S
Zr91        O102   2.400       .  S
O92         H148   0.990       .  S
O92         H156   0.990       .  S
O93         C113   1.286       .  A
O94         C115   1.284       .  A
O95        Zr105   2.474       .  S
O95         C114   1.292       .  A
O96        Zr104   2.478       .  S
O96         C115   1.292       .  A
O97         C114   1.285       .  A
O98        Zr106   2.427       .  S
O98         C113   1.283       .  A
O99        Zr104   2.405       .  S
O99        Zr106   2.379       .  S
O100       Zr105   2.397       .  S
O100       Zr106   2.372       .  S
O100        H135   0.966       .  S
O101       Zr104   2.405       .  S
O101       Zr121   2.385       .  S
O101        H138   0.965       .  S
O102       Zr105   2.402       .  S
O102       Zr121   2.402       .  S
Zr103       O128   2.442       .  S
Zr103       O122   2.434       .  S
Zr103       O130   2.417       .  S
Zr103       O118   2.425       .  S
Zr103       O109   2.406       .  S
Zr103       O110   2.400       .  S
Zr103       O111   2.378       .  S
Zr103       O112   2.379       .  S
Zr104       O123   2.436       .  S
Zr104       O116   2.435       .  S
Zr104       O117   2.485       .  S
Zr104       O110   2.402       .  S
Zr104       O111   2.399       .  S
Zr105       O107   2.435       .  S
Zr105       O129   2.437       .  S
Zr105       O131   2.477       .  S
Zr105       O109   2.400       .  S
Zr105       O112   2.401       .  S
Zr106       O132   2.436       .  S
Zr106       O133   2.435       .  S
Zr106       O108   2.436       .  S
Zr106       O109   2.401       .  S
Zr106       O110   2.389       .  S
O107        H144   0.990       .  S
O108        H139   0.990       .  S
O108        H153   0.989       .  S
O110        H136   0.965       .  S
O111       Zr121   2.378       .  S
O112       Zr121   2.377       .  S
O112        H137   0.966       .  S
C113       C1803   1.485       .  S
C114       C1755   1.488       .  S
C115       C1776   1.491       .  S
O116        H152   0.990       .  S
O117        C119   1.294       .  A
O118        C119   1.285       .  A
C119       C1827   1.497       .  S
O120       Zr121   2.434       .  S
O120        H149   0.990       .  S
Zr121       O124   2.435       .  S
Zr121       O125   2.437       .  S
Zr121       O126   2.425       .  S
O122        C127   1.285       .  A
O123        H140   0.990       .  S
O123        H155   0.990       .  S
O124        H141   0.990       .  S
O125        H145   0.990       .  S
O125        H154   0.990       .  S
O126        C127   1.282       .  A
C127       C1848   1.479       .  S
O128        H147   0.991       .  S
O128        H151   0.990       .  S
O129        H143   0.990       .  S
O129        H150   0.990       .  S
O130        C134   1.281       .  A
O131        C134   1.292       .  A
O132        H142   0.990       .  S
O133        H146   0.990       .  S
C134       C1920   1.488       .  S
C157        C158   1.413       .  A
C157        C162   1.409       .  A
C157       C1851   1.493       .  S
C158        C159   1.408       .  A
C158        H163   1.082       .  S
C159        C160   1.401       .  A
C159       C1728   1.483   1_545  S
C160        C161   1.393       .  A
C160        H164   1.084   1_545  S
C161        C162   1.399       .  A
C161       C1704   1.475       .  S
C162        H165   1.083       .  S
Zr166       O167   2.442       .  S
Zr166       O168   2.422       .  S
Zr166       O169   2.436       .  S
Zr166       O172   2.415       .  S
Zr166       O174   2.370       .  S
Zr166       O175   2.384       .  S
Zr166       O176   2.398       .  S
Zr166       O177   2.399       .  S
O167        H223   0.991       .  S
O167        H231   0.990       .  S
O168        C188   1.282       .  A
O169        C190   1.284       .  A
O170       Zr180   2.454       .  S
O170        C189   1.288       .  A
O171       Zr179   2.445       .  S
O171        C190   1.285       .  A
O172        C189   1.283       .  A
O173       Zr181   2.425       .  S
O173        C188   1.281       .  A
O174       Zr179   2.395       .  S
O174       Zr181   2.383       .  S
O175       Zr180   2.403       .  S
O175       Zr181   2.381       .  S
O175        H210   0.965       .  S
O176       Zr179   2.401       .  S
O176       Zr196   2.403       .  S
O176        H213   0.965       .  S
O177       Zr180   2.394       .  S
O177       Zr196   2.386       .  S
Zr178       O203   2.442       .  S
Zr178       O197   2.436       .  S
Zr178       O205   2.429       .  S
Zr178       O193   2.425       .  S
Zr178       O184   2.397       .  S
Zr178       O185   2.405       .  S
Zr178       O186   2.373       .  S
Zr178       O187   2.379       .  S
Zr179       O198   2.434       .  S
Zr179       O191   2.436       .  S
Zr179       O192   2.423       .  S
Zr179       O185   2.406       .  S
Zr179       O186   2.394       .  S
Zr180       O182   2.434       .  S
Zr180       O204   2.434       .  S
Zr180       O206   2.457       .  S
Zr180       O184   2.391       .  S
Zr180       O187   2.397       .  S
Zr181       O207   2.438       .  S
Zr181       O208   2.436       .  S
Zr181       O183   2.437       .  S
Zr181       O184   2.391       .  S
Zr181       O185   2.401       .  S
O182        H219   0.990       .  S
O183        H214   0.990       .  S
O183        H228   0.990       .  S
O185        H211   0.966       .  S
O186       Zr196   2.374       .  S
O187       Zr196   2.378       .  S
O187        H212   0.966       .  S
C188       C1635   1.473       .  S
C189       C1656   1.478       .  S
C190       C1683   1.481       .  S
O191        H227   0.990       .  S
O192        C194   1.282       .  A
O193        C194   1.283       .  A
C194       C1731   1.464       .  S
O195       Zr196   2.435       .  S
O195        H224   0.990       .  S
Zr196       O199   2.436       .  S
Zr196       O200   2.438       .  S
Zr196       O201   2.428       .  S
O197        C202   1.286       .  A
O198        H215   0.990       .  S
O198        H230   0.990       .  S
O199        H216   0.990       .  S
O200        H220   0.990       .  S
O200        H229   0.989       .  S
O201        C202   1.282       .  A
C202       C2379   1.479       .  S
O203        H222   0.991       .  S
O203        H226   0.990       .  S
O204        H218   0.990       .  S
O204        H225   0.990       .  S
O205        C209   1.287       .  A
O206        C209   1.288       .  A
O207        H217   0.990       .  S
O208        H221   0.990       .  S
C209       C2019   1.489       .  S
Zr232       O233   2.439       .  S
Zr232       O234   2.418       .  S
Zr232       O235   2.444       .  S
Zr232       O238   2.428       .  S
Zr232       O240   2.373       .  S
Zr232       O241   2.383       .  S
Zr232       O242   2.401       .  S
Zr232       O243   2.408       .  S
O233        H289   0.991       .  S
O233        H297   0.990       .  S
O234        C254   1.281       .  A
O235        C256   1.287       .  A
O236       Zr246   2.461       .  S
O236        C255   1.290       .  A
O237       Zr245   2.446       .  S
O237        C256   1.286       .  A
O238        C255   1.284       .  A
O239       Zr247   2.429       .  S
O239        C254   1.282       .  A
O240       Zr245   2.395       .  S
O240       Zr247   2.379       .  S
O241       Zr246   2.395       .  S
O241       Zr247   2.372       .  S
O241        H276   0.967       .  S
O242       Zr245   2.401       .  S
O242       Zr262   2.392       .  S
O242        H279   0.966       .  S
O243       Zr246   2.399       .  S
O243       Zr262   2.405       .  S
Zr244       O269   2.444       .  S
Zr244       O263   2.426       .  S
Zr244       O271   2.423       .  S
Zr244       O259   2.425       .  S
Zr244       O250   2.405       .  S
Zr244       O251   2.402       .  S
Zr244       O252   2.375       .  S
Zr244       O253   2.379       .  S
Zr245       O264   2.435       .  S
Zr245       O257   2.435       .  S
Zr245       O258   2.439       .  S
Zr245       O251   2.401       .  S
Zr245       O252   2.392       .  S
Zr246       O248   2.435       .  S
Zr246       O270   2.436       .  S
Zr246       O272   2.459       .  S
Zr246       O250   2.398       .  S
Zr246       O253   2.391       .  S
Zr247       O273   2.435       .  S
Zr247       O274   2.435       .  S
Zr247       O249   2.438       .  S
Zr247       O250   2.402       .  S
Zr247       O251   2.394       .  S
O248        H285   0.990       .  S
O249        H280   0.990       .  S
O249        H294   0.990       .  S
O251        H277   0.966       .  S
O252       Zr262   2.375       .  S
O253       Zr262   2.375       .  S
O253        H278   0.967       .  S
C254       C1971   1.475       .  S
C255       C2451   1.484       .  S
C256       C1899   1.482       .  S
O257        H293   0.990       .  S
O258        C260   1.285       .  A
O259        C260   1.284       .  A
C260       C1560   1.468       .  S
O261       Zr262   2.436       .  S
O261        H290   0.990       .  S
Zr262       O265   2.438       .  S
Zr262       O266   2.441       .  S
Zr262       O267   2.432       .  S
O263        C268   1.283       .  A
O264        H281   0.990       .  S
O264        H296   0.990       .  S
O265        H282   0.990       .  S
O266        H286   0.990       .  S
O266        H295   0.990       .  S
O267        C268   1.281       .  A
C268       C1584   1.471       .  S
O269        H288   0.990       .  S
O269        H292   0.990       .  S
O270        H284   0.990       .  S
O270        H291   0.990       .  S
O271        C275   1.282       .  A
O272        C275   1.289       .  A
O273        H283   0.990       .  S
O274        H287   0.990       .  S
C275       C1608   1.481       .  S
Zr298       O299   2.439       .  S
Zr298       O300   2.437       .  S
Zr298       O301   2.439       .  S
Zr298       O304   2.416       .  S
Zr298       O306   2.374       .  S
Zr298       O307   2.381       .  S
Zr298       O308   2.400       .  S
Zr298       O309   2.407       .  S
O299        H355   0.990       .  S
O299        H363   0.990       .  S
O300        C320   1.286       .  A
O301        C322   1.286       .  A
O302       Zr312   2.456       .  S
O302        C321   1.289       .  A
O303       Zr311   2.435       .  S
O303        C322   1.284       .  A
O304        C321   1.283       .  A
O305       Zr313   2.439       .  S
O305        C320   1.284       .  A
O306       Zr311   2.396       .  S
O306       Zr313   2.374       .  S
O307       Zr312   2.397       .  S
O307       Zr313   2.373       .  S
O307        H342   0.966       .  S
O308       Zr311   2.401       .  S
O308       Zr328   2.398       .  S
O308        H345   0.966       .  S
O309       Zr312   2.393       .  S
O309       Zr328   2.399       .  S
Zr310       O335   2.439       .  S
Zr310       O329   2.433       .  S
Zr310       O337   2.404       .  S
Zr310       O325   2.428       .  S
Zr310       O316   2.403       .  S
Zr310       O317   2.402       .  S
Zr310       O318   2.367       .  S
Zr310       O319   2.381       .  S
Zr311       O330   2.437       .  S
Zr311       O323   2.434       .  S
Zr311       O324   2.448       .  S
Zr311       O317   2.397       .  S
Zr311       O318   2.392       .  S
Zr312       O314   2.437       .  S
Zr312       O336   2.436       .  S
Zr312       O338   2.465       .  S
Zr312       O316   2.399       .  S
Zr312       O319   2.393       .  S
Zr313       O339   2.434       .  S
Zr313       O340   2.435       .  S
Zr313       O315   2.438       .  S
Zr313       O316   2.402       .  S
Zr313       O317   2.405       .  S
O314        H351   0.990       .  S
O315        H346   0.990       .  S
O315        H360   0.990       .  S
O317        H343   0.966       .  S
O318       Zr328   2.375       .  S
O319       Zr328   2.378       .  S
O319        H344   0.966       .  S
C320       C1488   1.488       .  S
C321       C1515   1.477       .  S
C322       C1536   1.474       .  S
O323        H359   0.990       .  S
O324        C326   1.287       .  A
O325        C326   1.283       .  A
C326       C2043   1.480       .  S
O327       Zr328   2.438       .  S
O327        H356   0.990       .  S
Zr328       O331   2.436       .  S
Zr328       O332   2.441       .  S
Zr328       O333   2.437       .  S
O329        C334   1.285       .  A
O330        H347   0.990       .  S
O330        H362   0.990       .  S
O331        H348   0.990       .  S
O332        H352   0.990       .  S
O332        H361   0.989       .  S
O333        C334   1.284       .  A
C334       C2520   1.484       .  S
O335        H354   0.990       .  S
O335        H358   0.990       .  S
O336        H350   0.990       .  S
O336        H357   0.990       .  S
O337        C341   1.281       .  A
O338        C341   1.289       .  A
O339        H349   0.990       .  S
O340        H353   0.990       .  S
C341       C1944   1.485       .  S
C364        C365   1.412       .  A
C364        C369   1.412       .  A
C364       C1824   1.500       .  S
C365        C366   1.409       .  A
C365        H370   1.083       .  S
C366        C367   1.408   1_554  A
C366       C1440   1.503       .  S
C367        C368   1.410       .  A
C367        H371   1.083       .  S
C368        C369   1.414   1_556  A
C368       C1467   1.501       .  S
C369        H372   1.083       .  S
Zr373       O374   2.441       .  S
Zr373       O375   2.418       .  S
Zr373       O376   2.417       .  S
Zr373       O379   2.408       .  S
Zr373       O381   2.375       .  S
Zr373       O382   2.379       .  S
Zr373       O383   2.397       .  S
Zr373       O384   2.397       .  S
O374        H430   0.990       .  S
O374        H438   0.990       .  S
O375        C395   1.282       .  A
O376        C397   1.282       .  A
O377       Zr387   2.486       .  S
O377        C396   1.294       .  A
O378       Zr386   2.455       .  S
O378        C397   1.288       .  A
O379        C396   1.280       .  A
O380       Zr388   2.433       .  S
O380        C395   1.284       .  A
O381       Zr386   2.397       .  S
O381       Zr388   2.378       .  S
O382       Zr387   2.393       .  S
O382       Zr388   2.378       .  S
O382        H417   0.966       .  S
O383       Zr386   2.402       .  S
O383       Zr403   2.392       .  S
O383        H420   0.966       .  S
O384       Zr387   2.398       .  S
O384       Zr403   2.398       .  S
Zr385       O410   2.443       .  S
Zr385       O404   2.431       .  S
Zr385       O412   2.414       .  S
Zr385       O400   2.427       .  S
Zr385       O391   2.404       .  S
Zr385       O392   2.399       .  S
Zr385       O393   2.370       .  S
Zr385       O394   2.382       .  S
Zr386       O405   2.435       .  S
Zr386       O398   2.434       .  S
Zr386       O399   2.452       .  S
Zr386       O392   2.397       .  S
Zr386       O393   2.394       .  S
Zr387       O389   2.434       .  S
Zr387       O411   2.438       .  S
Zr387       O413   2.481       .  S
Zr387       O391   2.401       .  S
Zr387       O394   2.402       .  S
Zr388       O414   2.436       .  S
Zr388       O415   2.435       .  S
Zr388       O390   2.437       .  S
Zr388       O391   2.401       .  S
Zr388       O392   2.394       .  S
O389        H426   0.990       .  S
O390        H421   0.990       .  S
O390        H435   0.990       .  S
O392        H418   0.966       .  S
O393       Zr403   2.375       .  S
O394       Zr403   2.378       .  S
O394        H419   0.966       .  S
C395       C2115   1.477       .  S
C396       C1464   1.486       .  S
C397       C2256   1.484       .  S
O398        H434   0.990       .  S
O399        C401   1.288       .  A
O400        C401   1.284       .  A
C401       C1368   1.481       .  S
O402       Zr403   2.439       .  S
O402        H431   0.990       .  S
Zr403       O406   2.437       .  S
Zr403       O407   2.440       .  S
Zr403       O408   2.425       .  S
O404        C409   1.284       .  A
O405        H422   0.990       .  S
O405        H437   0.990       .  S
O406        H423   0.990       .  S
O407        H427   0.990       .  S
O407        H436   0.990       .  S
O408        C409   1.282       .  A
C409       C1395   1.475       .  S
O410        H429   0.990       .  S
O410        H433   0.990       .  S
O411        H425   0.990       .  S
O411        H432   0.990       .  S
O412        C416   1.282       .  A
O413        C416   1.294       .  A
O414        H424   0.990       .  S
O415        H428   0.990       .  S
C416       C1419   1.488       .  S
Zr439       O440   2.440       .  S
Zr439       O441   2.430       .  S
Zr439       O442   2.390       .  S
Zr439       O445   2.422       .  S
Zr439       O447   2.373       .  S
Zr439       O448   2.367       .  S
Zr439       O449   2.407       .  S
Zr439       O450   2.395       .  S
O440        H496   0.991       .  S
O440        H504   0.990       .  S
O441        C461   1.283       .  A
O442        C463   1.278       .  A
O443       Zr453   2.425       .  S
O443        C462   1.282       .  A
O444       Zr452   2.479       .  S
O444        C463   1.292       .  A
O445        C462   1.283       .  A
O446       Zr454   2.412       .  S
O446        C461   1.280       .  A
O447       Zr452   2.393       .  S
O447       Zr454   2.380       .  S
O448       Zr453   2.386       .  S
O448       Zr454   2.375       .  S
O448        H483   0.967       .  S
O449       Zr452   2.405       .  S
O449       Zr469   2.384       .  S
O449        H486   0.965       .  S
O450       Zr453   2.389       .  S
O450       Zr469   2.404       .  S
Zr451       O476   2.441       .  S
Zr451       O470   2.410       .  S
Zr451       O478   2.425       .  S
Zr451       O466   2.425       .  S
Zr451       O457   2.394       .  S
Zr451       O458   2.398       .  S
Zr451       O459   2.385       .  S
Zr451       O460   2.378       .  S
Zr452       O471   2.437       .  S
Zr452       O464   2.434       .  S
Zr452       O465   2.460       .  S
Zr452       O458   2.406       .  S
Zr452       O459   2.406       .  S
Zr453       O455   2.436       .  S
Zr453       O477   2.436       .  S
Zr453       O479   2.413       .  S
Zr453       O457   2.397       .  S
Zr453       O460   2.390       .  S
Zr454       O480   2.435       .  S
Zr454       O481   2.434       .  S
Zr454       O456   2.435       .  S
Zr454       O457   2.392       .  S
Zr454       O458   2.386       .  S
O455        H492   0.990       .  S
O456        H487   0.990       .  S
O456        H501   0.990       .  S
O458        H484   0.966       .  S
O459       Zr469   2.376       .  S
O460       Zr469   2.373       .  S
O460        H485   0.967       .  S
C461       C2088   1.471       .  S
C462       C2187   1.468       .  S
C463       C2403   1.489       .  S
O464        H500   0.990       .  S
O465        C467   1.289       .  A
O466        C467   1.284       .  A
C467       C1320   1.477       .  S
O468       Zr469   2.439       .  S
O468        H497   0.990       .  S
Zr469       O472   2.437       .  S
Zr469       O473   2.441       .  S
Zr469       O474   2.432       .  S
O470        C475   1.280       .  A
O471        H488   0.990       .  S
O471        H503   0.990       .  S
O472        H489   0.990       .  S
O473        H493   0.990       .  S
O473        H502   0.990       .  S
O474        C475   1.283       .  A
C475       C1344   1.469       .  S
O476        H495   0.991       .  S
O476        H499   0.990       .  S
O477        H491   0.990       .  S
O477        H498   0.990       .  S
O478        C482   1.283       .  A
O479        C482   1.280       .  A
O480        H490   0.990       .  S
O481        H494   0.990       .  S
C482       C1299   1.457       .  S
Zr505       O506   2.439       .  S
Zr505       O507   2.420       .  S
Zr505       O508   2.433       .  S
Zr505       O511   2.406       .  S
Zr505       O513   2.379       .  S
Zr505       O514   2.380       .  S
Zr505       O515   2.396       .  S
Zr505       O516   2.398       .  S
O506        H562   0.990       .  S
O506        H570   0.990       .  S
O507        C527   1.282       .  A
O508        C529   1.286       .  A
O509       Zr519   2.452       .  S
O509        C528   1.288       .  A
O510       Zr518   2.472       .  S
O510        C529   1.292       .  A
O511        C528   1.280       .  A
O512       Zr520   2.420       .  S
O512        C527   1.281       .  A
O513       Zr518   2.406       .  S
O513       Zr520   2.388       .  S
O514       Zr519   2.393       .  S
O514       Zr520   2.367       .  S
O514        H549   0.966       .  S
O515       Zr518   2.405       .  S
O515       Zr535   2.389       .  S
O515        H552   0.965       .  S
O516       Zr519   2.396       .  S
O516       Zr535   2.395       .  S
Zr517       O542   2.443       .  S
Zr517       O536   2.416       .  S
Zr517       O544   2.417       .  S
Zr517       O532   2.416       .  S
Zr517       O523   2.395       .  S
Zr517       O524   2.401       .  S
Zr517       O525   2.373       .  S
Zr517       O526   2.376       .  S
Zr518       O537   2.436       .  S
Zr518       O530   2.434       .  S
Zr518       O531   2.467       .  S
Zr518       O524   2.408       .  S
Zr518       O525   2.405       .  S
Zr519       O521   2.436       .  S
Zr519       O543   2.437       .  S
Zr519       O545   2.455       .  S
Zr519       O523   2.395       .  S
Zr519       O526   2.395       .  S
Zr520       O546   2.436       .  S
Zr520       O547   2.435       .  S
Zr520       O522   2.435       .  S
Zr520       O523   2.394       .  S
Zr520       O524   2.384       .  S
O521        H558   0.990       .  S
O522        H553   0.990       .  S
O522        H567   0.990       .  S
O524        H550   0.965       .  S
O525       Zr535   2.385       .  S
O526       Zr535   2.379       .  S
O526        H551   0.966       .  S
C527       C2328   1.472       .  S
C528       C2232   1.469       .  S
C529       C2472   1.496       .  S
O530        H566   0.990       .  S
O531        C533   1.289       .  A
O532        C533   1.282       .  A
C533       C1248   1.485       .  S
O534       Zr535   2.438       .  S
O534        H563   0.990       .  S
Zr535       O538   2.437       .  S
Zr535       O539   2.439       .  S
Zr535       O540   2.418       .  S
O536        C541   1.282       .  A
O537        H554   0.990       .  S
O537        H569   0.990       .  S
O538        H555   0.990       .  S
O539        H559   0.990       .  S
O539        H568   0.990       .  S
O540        C541   1.280       .  A
C541       C1272   1.475       .  S
O542        H561   0.990       .  S
O542        H565   0.991       .  S
O543        H557   0.990       .  S
O543        H564   0.990       .  S
O544        C548   1.282       .  A
O545        C548   1.288       .  A
O546        H556   0.990       .  S
O547        H560   0.990       .  S
C548       C1224   1.478       .  S
Zr571       O572   2.444       .  S
Zr571       O573   2.428       .  S
Zr571       O574   2.420       .  S
Zr571       O577   2.420       .  S
Zr571       O579   2.378       .  S
Zr571       O580   2.375       .  S
Zr571       O581   2.413       .  S
Zr571       O582   2.402       .  S
O572        H628   0.990       .  S
O572        H636   0.990       .  S
O573        C593   1.282       .  A
O574        C595   1.282       .  A
O575       Zr585   2.451       .  S
O575        C594   1.286       .  A
O576       Zr584   2.460       .  S
O576        C595   1.287       .  A
O577        C594   1.282       .  A
O578       Zr586   2.407       .  S
O578        C593   1.278       .  A
O579       Zr584   2.400       .  S
O579       Zr586   2.385       .  S
O580       Zr585   2.390       .  S
O580       Zr586   2.383       .  S
O580        H615   0.967       .  S
O581       Zr584   2.406       .  S
O581       Zr601   2.391       .  S
O581        H618   0.965       .  S
O582       Zr585   2.390       .  S
O582       Zr601   2.407       .  S
Zr583       O608   2.441       .  S
Zr583       O602   2.422       .  S
Zr583       O610   2.421       .  S
Zr583       O598   2.423       .  S
Zr583       O589   2.401       .  S
Zr583       O590   2.401       .  S
Zr583       O591   2.379       .  S
Zr583       O592   2.380       .  S
Zr584       O603   2.436       .  S
Zr584       O596   2.435       .  S
Zr584       O597   2.451       .  S
Zr584       O590   2.400       .  S
Zr584       O591   2.399       .  S
Zr585       O587   2.436       .  S
Zr585       O609   2.437       .  S
Zr585       O611   2.428       .  S
Zr585       O589   2.402       .  S
Zr585       O592   2.392       .  S
Zr586       O612   2.436       .  S
Zr586       O613   2.436       .  S
Zr586       O588   2.436       .  S
Zr586       O589   2.395       .  S
Zr586       O590   2.387       .  S
O587        H624   0.990       .  S
O588        H619   0.990       .  S
O588        H633   0.990       .  S
O590        H616   0.966       .  S
O591       Zr601   2.372       .  S
O592       Zr601   2.368       .  S
O592        H617   0.967       .  S
C593       C2163   1.473       .  S
C594       C2307   1.487       .  S
C595       C2544   1.481       .  S
O596        H632   0.990       .  S
O597        C599   1.287       .  A
O598        C599   1.284       .  A
C599       C1176   1.477       .  S
O600       Zr601   2.435       .  S
O600        H629   0.990       .  S
Zr601       O604   2.434       .  S
Zr601       O605   2.438       .  S
Zr601       O606   2.440       .  S
O602        C607   1.282       .  A
O603        H620   0.990       .  S
O603        H635   0.990       .  S
O604        H621   0.990       .  S
O605        H625   0.990       .  S
O605        H634   0.990       .  S
O606        C607   1.286       .  A
C607       C1200   1.481       .  S
O608        H627   0.990       .  S
O608        H631   0.990       .  S
O609        H623   0.990       .  S
O609        H630   0.990       .  S
O610        C614   1.284       .  A
O611        C614   1.283       .  A
O612        H622   0.990       .  S
O613        H626   0.990       .  S
C614       C1152   1.463       .  S
C637        C638   1.405       .  A
C637        C642   1.416       .  A
C637       C1203   1.494       .  S
C638        C639   1.394       .  A
C638        H643   1.084       .  S
C639        C640   1.396       .  A
C639       C1128   1.472       .  S
C640        C641   1.410       .  A
C640        H644   1.083       .  S
C641        C642   1.416       .  A
C641       C1323   1.499       .  S
C642        H645   1.082       .  S
C646        C647   1.402       .  A
C646        C651   1.406       .  A
C646       C1392   1.483       .  S
C647        C648   1.395       .  A
C647        H652   1.084       .  S
C648        C649   1.398       .  A
C648       C1104   1.477       .  S
C649        C650   1.410       .  A
C649        H653   1.083       .  S
C650        C651   1.410       .  A
C650       C1347   1.490       .  S
C651        H654   1.082       .  S
C655        C656   1.404       .  A
C655        C660   1.409       .  A
C655       C1251   1.484       .  S
C656        C657   1.399       .  A
C656        H661   1.084       .  S
C657        C658   1.404       .  A
C657       C1080   1.489       .  S
C658        C659   1.413       .  A
C658        H662   1.082       .  S
C659        C660   1.413       .  A
C659       C1416   1.500       .  S
C660        H663   1.083       .  S
C664        C665   1.407       .  A
C664        C669   1.409       .  A
C664       C1275   1.484       .  S
C665        C666   1.396       .  A
C665        H670   1.084       .  S
C666        C667   1.394       .  A
C666       C1056   1.474       .  S
C667        C668   1.405       .  A
C667        H671   1.083       .  S
C668        C669   1.408       .  A
C668       C1179   1.486       .  S
C669        H672   1.083       .  S
C673        C674   1.417       .  A
C673        C678   1.410       .  A
C673       C1611   1.502       .  S
C674        C675   1.412       .  A
C674        H679   1.082       .  S
C675        C676   1.406       .  A
C675       C1779   1.491       .  S
C676        C677   1.402       .  A
C676        H680   1.084       .  S
C677        C678   1.403       .  A
C677       C1032   1.490       .  S
C678        H681   1.082       .  S
C682        C683   1.406       .  A
C682        C687   1.413       .  A
C682       C1587   1.483       .  S
C683        C684   1.393       .  A
C683        H688   1.084       .  S
C684        C685   1.393       .  A
C684       C1008   1.472       .  S
C685        C686   1.405       .  A
C685        H689   1.084       .  S
C686        C687   1.414       .  A
C686       C1539   1.492       .  S
C687        H690   1.083       .  S
C691        C692   1.408       .  A
C691        C696   1.416       .  A
C691       C1512   1.494       .  S
C692        C693   1.398       .  A
C692        H697   1.084       .  S
C693        C694   1.397       .  A
C693        C984   1.479       .  S
C694        C695   1.408       .  A
C694        H698   1.083       .  S
C695        C696   1.415       .  A
C695       C1680   1.500       .  S
C696        H699   1.082       .  S
C700        C701   1.413       .  A
C700        C705   1.407       .  A
C700       C1800   1.493       .  S
C701        C702   1.411       .  A
C701        H706   1.083       .  S
C702        C703   1.403       .  A
C702       C1659   1.476       .  S
C703        C704   1.392       .  A
C703        H707   1.085       .  S
C704        C705   1.399       .  A
C704        C960   1.474       .  S
C705        H708   1.084       .  S
C709        C710   1.405       .  A
C709        C714   1.409       .  A
C709       C1491   1.488       .  S
C710        C711   1.398       .  A
C710        H715   1.084       .  S
C711        C712   1.399       .  A
C711        C936   1.479       .  S
C712        C713   1.410       .  A
C712        H716   1.084       .  S
C713        C714   1.410       .  A
C713       C1155   1.489       .  S
C714        H717   1.083       .  S
C718        C719   1.405       .  A
C718        C723   1.405       .  A
C718       C1563   1.480       .  S
C719        C720   1.397       .  A
C719        H724   1.084       .  S
C720        C721   1.400       .  A
C720        C915   1.478       .  S
C721        C722   1.408       .  A
C721        H725   1.083       .  S
C722        C723   1.409       .  A
C722       C1227   1.489       .  S
C723        H726   1.083       .  S
C727        C728   1.403       .  A
C727        C732   1.405       .  A
C727       C1632   1.484       .  S
C728        C729   1.395       .  A
C728        H733   1.084       .  S
C729        C730   1.397       .  A
C729        C888   1.470       .  S
C730        C731   1.405       .  A
C730        H734   1.084       .  S
C731        C732   1.408       .  A
C731       C1296   1.483       .  S
C732        H735   1.082       .  S
C736        C737   1.405       .  A
C736        C741   1.413       .  A
C736       C1752   1.497       .  S
C737        C738   1.402       .  A
C737        H742   1.084       .  S
C738        C739   1.403       .  A
C738        C864   1.492       .  S
C739        C740   1.413       .  A
C739        H743   1.083       .  S
C740        C741   1.417       .  A
C740       C1371   1.502       .  S
C741        H744   1.083       .  S
O745       Zr781   2.462   1_565  S
O745        C756   1.297       .  A
O746       Zr780   2.426   1_565  S
O746        C757   1.291       .  A
O747       Zr753   2.453   1_556  S
O747        C758   1.295       .  A
O748       Zr753   2.433       .  S
O748        C759   1.292       .  A
O749       Zr783   2.455   1_565  S
O749        C759   1.295       .  A
O750       Zr782   2.423   1_565  S
O750        C758   1.290       .  A
O751       Zr753   2.450   1_455  S
O751        C757   1.295       .  A
O752       Zr753   2.438       .  S
O752        C756   1.293       .  A
Zr753       O754   2.336   1_665  S
Zr753       O755   2.342   1_564  S
Zr753       O763   2.349   1_565  S
Zr753       O761   2.335   1_664  S
O754       Zr780   2.333       .  S
O754       Zr783   2.334   1_455  S
O755       Zr781   2.338   1_556  S
O755       Zr782   2.336       .  S
C756       C2568   1.485       .  S
C757       C2427   1.479       .  S
C758       C2211   1.480       .  S
C759       C2064   1.483       .  S
H760        O761   0.963       .  S
O761       Zr780   2.336   1_556  S
O761       Zr782   2.331   1_455  S
H762        O763   0.956   1_565  S
O763       Zr781   2.346       .  S
O763       Zr783   2.339       .  S
O764       Zr780   2.437       .  S
O764        C787   1.293       .  A
O765       Zr781   2.449       .  S
O765        C788   1.295       .  A
O766       Zr782   2.417   1_455  S
O766        C789   1.288       .  A
O767       Zr783   2.433   1_455  S
O767        C790   1.291       .  A
O768       Zr783   2.438       .  S
O768        C791   1.292       .  A
O769       Zr782   2.424       .  S
O769        C792   1.290       .  A
O770       Zr784   2.456   1_556  S
O770        C793   1.295       .  A
O771       Zr784   2.452       .  S
O771        C794   1.295       .  A
O772       Zr782   2.411       .  S
O772        C793   1.287       .  A
O773       Zr783   2.436       .  S
O773        C794   1.292       .  A
O774       Zr780   2.432   1_556  S
O774        C789   1.291       .  A
O775       Zr781   2.443   1_556  S
O775        C792   1.293       .  A
O776       Zr781   2.418       .  S
O776        C791   1.289       .  A
O777       Zr780   2.431       .  S
O777        C790   1.291       .  A
O778       Zr784   2.459   1_455  S
O778        C787   1.295       .  A
O779       Zr784   2.445       .  S
O779        C788   1.295       .  A
Zr780       O786   2.329   1_554  S
Zr780       O798   2.341       .  S
Zr781       O785   2.345       .  S
Zr781       O796   2.345   1_554  S
Zr782       O786   2.333   1_655  S
Zr782       O796   2.336       .  S
Zr783       O785   2.338       .  S
Zr783       O798   2.350   1_655  S
Zr784       O785   2.344       .  S
Zr784       O786   2.336   1_654  S
Zr784       O798   2.351   1_655  S
Zr784       O796   2.355   1_554  S
C787       C1443   1.483       .  S
C788       C2499   1.485       .  S
C789       C2136   1.467       .  S
C790       C1707   1.472       .  S
C791       C1995   1.473       .  S
C792       C2355   1.478       .  S
C793       C2283   1.467       .  S
C794       C1875   1.476       .  S
H795        O796   0.967       .  S
H797        O798   0.967       .  S
O799       Zr835   2.432       .  S
O799        C810   1.291       .  A
O800       Zr834   2.472       .  S
O800        C811   1.298       .  A
O801       Zr807   2.437       .  S
O801        C812   1.292       .  A
O802       Zr807   2.439       .  S
O802        C813   1.293       .  A
O803       Zr837   2.434       .  S
O803        C813   1.291       .  A
O804       Zr836   2.427       .  S
O804        C812   1.290       .  A
O805       Zr807   2.408       .  S
O805        C811   1.287       .  A
O806       Zr807   2.424       .  S
O806        C810   1.290       .  A
Zr807       O808   2.334       .  S
Zr807       O809   2.327       .  S
Zr807       O817   2.332       .  S
Zr807       O815   2.340       .  S
O808       Zr834   2.345       .  S
O808       Zr837   2.340       .  S
O809       Zr835   2.328       .  S
O809       Zr836   2.330       .  S
C810       C1131   1.475       .  S
C811       C1083   1.476       .  S
C812       C1107   1.475       .  S
C813       C1059   1.479       .  S
H814        O815   0.966       .  S
O815       Zr834   2.343       .  S
O815       Zr836   2.342       .  S
H816        O817   0.966       .  S
O817       Zr835   2.334       .  S
O817       Zr837   2.336       .  S
O818       Zr834   2.455       .  S
O818        C841   1.296       .  A
O819       Zr835   2.419       .  S
O819        C842   1.289       .  A
O820       Zr836   2.426       .  S
O820        C843   1.290       .  A
O821       Zr837   2.418       .  S
O821        C844   1.290       .  A
O822       Zr837   2.446       .  S
O822        C845   1.294       .  A
O823       Zr836   2.431       .  S
O823        C846   1.291       .  A
O824       Zr838   2.436       .  S
O824        C847   1.292       .  A
O825       Zr838   2.434       .  S
O825        C848   1.291       .  A
O826       Zr836   2.433       .  S
O826        C847   1.292       .  A
O827       Zr837   2.431       .  S
O827        C848   1.292       .  A
O828       Zr834   2.468       .  S
O828        C843   1.297       .  A
O829       Zr835   2.433       .  S
O829        C846   1.292       .  A
O830       Zr835   2.429       .  S
O830        C845   1.291       .  A
O831       Zr834   2.464       .  S
O831        C844   1.298       .  A
O832       Zr838   2.422       .  S
O832        C841   1.290       .  A
O833       Zr838   2.461       .  S
O833        C842   1.296       .  A
Zr834       O840   2.351       .  S
Zr834       O852   2.359       .  S
Zr835       O839   2.337       .  S
Zr835       O850   2.338       .  S
Zr836       O840   2.332       .  S
Zr836       O850   2.340       .  S
Zr837       O839   2.333       .  S
Zr837       O852   2.344       .  S
Zr838       O839   2.334       .  S
Zr838       O840   2.349       .  S
Zr838       O852   2.350       .  S
Zr838       O850   2.337       .  S
C841       C1035   1.474       .  S
C842        C987   1.481       .  S
C843        C867   1.481       .  S
C844        C912   1.480       .  S
C845        C939   1.483       .  S
C846        C891   1.475       .  S
C847        C963   1.477       .  S
C848       C1011   1.476       .  S
H849        O850   0.966       .  S
H851        O852   0.966       .  S
C853        C854   1.403       .  A
C853        C858   1.405       .  A
C853        H869   1.084       .  S
C854        C855   1.405       .  A
C854        H870   1.083       .  S
C855        C865   1.409       .  A
C855        C856   1.412       .  A
C856        C862   1.411       .  A
C856        C857   1.415       .  A
C857        C859   1.411       .  A
C857        C858   1.413       .  A
C858        C866   1.410       .  A
C859        C868   1.401       .  A
C859        C860   1.403       .  A
C860        C861   1.398       .  A
C860        H871   1.084       .  S
C861        C862   1.403       .  A
C861        H872   1.084       .  S
C862        C863   1.402       .  A
C863        C864   1.407       .  A
C863        H873   1.084       .  S
C864        C865   1.410       .  A
C865        H874   1.084       .  S
C866        C867   1.408       .  A
C866        H875   1.084       .  S
C867        C868   1.406       .  A
C868        H876   1.085       .  S
C877        C878   1.398       .  A
C877        C882   1.403       .  A
C877        H893   1.084       .  S
C878        C879   1.402       .  A
C878        H894   1.084       .  S
C879        C889   1.400       .  A
C879        C880   1.413       .  A
C880        C886   1.412       .  A
C880        C881   1.409       .  A
C881        C883   1.412       .  A
C881        C882   1.411       .  A
C882        C890   1.400       .  A
C883        C892   1.401       .  A
C883        C884   1.403       .  A
C884        C885   1.398       .  A
C884        H895   1.084       .  S
C885        C886   1.403       .  A
C885        H896   1.084       .  S
C886        C887   1.399       .  A
C887        C888   1.404       .  A
C887        H897   1.085       .  S
C888        C889   1.402       .  A
C889        H898   1.085       .  S
C890        C891   1.407       .  A
C890        H899   1.084       .  S
C891        C892   1.406       .  A
C892        H900   1.084       .  S
C901        C902   1.399       .  A
C901        C906   1.404       .  A
C901        H917   1.083       .  S
C902        C903   1.403       .  A
C902        H918   1.083       .  S
C903        C913   1.404       .  A
C903        C904   1.412       .  A
C904        C910   1.411       .  A
C904        C905   1.411       .  A
C905        C907   1.412       .  A
C905        C906   1.412       .  A
C906        C914   1.404       .  A
C907        C916   1.401       .  A
C907        C908   1.403       .  A
C908        C909   1.398       .  A
C908        H919   1.084       .  S
C909        C910   1.404       .  A
C909        H920   1.084       .  S
C910        C911   1.401       .  A
C911        C912   1.409       .  A
C911        H921   1.085       .  S
C912        C913   1.405       .  A
C913        H922   1.084       .  S
C914        C915   1.405       .  A
C914        H923   1.084       .  S
C915        C916   1.405       .  A
C916        H924   1.085       .  S
C925        C926   1.399       .  A
C925        C930   1.403       .  A
C925        H941   1.084       .  S
C926        C927   1.403       .  A
C926        H942   1.083       .  S
C927        C937   1.403       .  A
C927        C928   1.412       .  A
C928        C934   1.412       .  A
C928        C929   1.412       .  A
C929        C931   1.410       .  A
C929        C930   1.412       .  A
C930        C938   1.404       .  A
C931        C940   1.401       .  A
C931        C932   1.404       .  A
C932        C933   1.399       .  A
C932        H943   1.084       .  S
C933        C934   1.403       .  A
C933        H944   1.084       .  S
C934        C935   1.403       .  A
C935        C936   1.405       .  A
C935        H945   1.085       .  S
C936        C937   1.405       .  A
C937        H946   1.084       .  S
C938        C939   1.407       .  A
C938        H947   1.084       .  S
C939        C940   1.409       .  A
C940        H948   1.084       .  S
C949        C950   1.401       .  A
C949        C954   1.405       .  A
C949        H965   1.084       .  S
C950        C951   1.405       .  A
C950        H966   1.084       .  S
C951        C961   1.406       .  A
C951        C952   1.413       .  A
C952        C958   1.411       .  A
C952        C953   1.410       .  A
C953        C955   1.412       .  A
C953        C954   1.411       .  A
C954        C962   1.404       .  A
C955        C964   1.399       .  A
C955        C956   1.402       .  A
C956        C957   1.395       .  A
C956        H967   1.084       .  S
C957        C958   1.401       .  A
C957        H968   1.084       .  S
C958        C959   1.396       .  A
C959        C960   1.401       .  A
C959        H969   1.085       .  S
C960        C961   1.407       .  A
C961        H970   1.084       .  S
C962        C963   1.408       .  A
C962        H971   1.084       .  S
C963        C964   1.405       .  A
C964        H972   1.085       .  S
C973        C974   1.401       .  A
C973        C978   1.404       .  A
C973        H989   1.083       .  S
C974        C975   1.404       .  A
C974        H990   1.083       .  S
C975        C985   1.406       .  A
C975        C976   1.412       .  A
C976        C982   1.412       .  A
C976        C977   1.412       .  A
C977        C979   1.410       .  A
C977        C978   1.413       .  A
C978        C986   1.408       .  A
C979        C988   1.398       .  A
C979        C980   1.403       .  A
C980        C981   1.397       .  A
C980        H991   1.084       .  S
C981        C982   1.403       .  A
C981        H992   1.084       .  S
C982        C983   1.401       .  A
C983        C984   1.404       .  A
C983        H993   1.085       .  S
C984        C985   1.405       .  A
C985        H994   1.084       .  S
C986        C987   1.407       .  A
C986        H995   1.084       .  S
C987        C988   1.407       .  A
C988        H996   1.085       .  S
C997        C998   1.401       .  A
C997       C1002   1.404       .  A
C997       H1013   1.084       .  S
C998        C999   1.404       .  A
C998       H1014   1.084       .  S
C999       C1009   1.404       .  A
C999       C1000   1.412       .  A
C1000      C1006   1.412       .  A
C1000      C1001   1.409       .  A
C1001      C1003   1.411       .  A
C1001      C1002   1.412       .  A
C1002      C1010   1.405       .  A
C1003      C1012   1.396       .  A
C1003      C1004   1.402       .  A
C1004      C1005   1.395       .  A
C1004      H1015   1.084       .  S
C1005      C1006   1.401       .  A
C1005      H1016   1.084       .  S
C1006      C1007   1.396       .  A
C1007      C1008   1.402       .  A
C1007      H1017   1.085       .  S
C1008      C1009   1.405       .  A
C1009      H1018   1.084       .  S
C1010      C1011   1.408       .  A
C1010      H1019   1.084       .  S
C1011      C1012   1.405       .  A
C1012      H1020   1.085       .  S
C1021      C1022   1.398       .  A
C1021      C1026   1.403       .  A
C1021      H1037   1.084       .  S
C1022      C1023   1.403       .  A
C1022      H1038   1.084       .  S
C1023      C1033   1.402       .  A
C1023      C1024   1.411       .  A
C1024      C1030   1.411       .  A
C1024      C1025   1.412       .  A
C1025      C1027   1.413       .  A
C1025      C1026   1.411       .  A
C1026      C1034   1.399       .  A
C1027      C1036   1.405       .  A
C1027      C1028   1.403       .  A
C1028      C1029   1.400       .  A
C1028      H1039   1.084       .  S
C1029      C1030   1.404       .  A
C1029      H1040   1.083       .  S
C1030      C1031   1.405       .  A
C1031      C1032   1.409       .  A
C1031      H1041   1.084       .  S
C1032      C1033   1.408       .  A
C1033      H1042   1.084       .  S
C1034      C1035   1.406       .  A
C1034      H1043   1.085       .  S
C1035      C1036   1.405       .  A
C1036      H1044   1.084       .  S
C1045      C1046   1.399       .  A
C1045      C1050   1.404       .  A
C1045      H1061   1.084       .  S
C1046      C1047   1.403       .  A
C1046      H1062   1.084       .  S
C1047      C1057   1.403       .  A
C1047      C1048   1.413       .  A
C1048      C1054   1.411       .  A
C1048      C1049   1.410       .  A
C1049      C1051   1.412       .  A
C1049      C1050   1.411       .  A
C1050      C1058   1.402       .  A
C1051      C1060   1.401       .  A
C1051      C1052   1.403       .  A
C1052      C1053   1.397       .  A
C1052      H1063   1.084       .  S
C1053      C1054   1.403       .  A
C1053      H1064   1.084       .  S
C1054      C1055   1.398       .  A
C1055      C1056   1.404       .  A
C1055      H1065   1.085       .  S
C1056      C1057   1.404       .  A
C1057      H1066   1.084       .  S
C1058      C1059   1.408       .  A
C1058      H1067   1.084       .  S
C1059      C1060   1.406       .  A
C1060      H1068   1.084       .  S
C1069      C1070   1.401       .  A
C1069      C1074   1.404       .  A
C1069      H1085   1.083       .  S
C1070      C1071   1.405       .  A
C1070      H1086   1.083       .  S
C1071      C1081   1.405       .  A
C1071      C1072   1.410       .  A
C1072      C1078   1.413       .  A
C1072      C1073   1.413       .  A
C1073      C1075   1.409       .  A
C1073      C1074   1.415       .  A
C1074      C1082   1.410       .  A
C1075      C1084   1.398       .  A
C1075      C1076   1.403       .  A
C1076      C1077   1.398       .  A
C1076      H1087   1.084       .  S
C1077      C1078   1.403       .  A
C1077      H1088   1.084       .  S
C1078      C1079   1.404       .  A
C1079      C1080   1.408       .  A
C1079      H1089   1.084       .  S
C1080      C1081   1.408       .  A
C1081      H1090   1.084       .  S
C1082      C1083   1.405       .  A
C1082      H1091   1.084       .  S
C1083      C1084   1.407       .  A
C1084      H1092   1.085       .  S
C1093      C1094   1.397       .  A
C1093      C1098   1.403       .  A
C1093      H1109   1.084       .  S
C1094      C1095   1.403       .  A
C1094      H1110   1.084       .  S
C1095      C1105   1.398       .  A
C1095      C1096   1.411       .  A
C1096      C1102   1.413       .  A
C1096      C1097   1.409       .  A
C1097      C1099   1.411       .  A
C1097      C1098   1.412       .  A
C1098      C1106   1.400       .  A
C1099      C1108   1.400       .  A
C1099      C1100   1.404       .  A
C1100      C1101   1.399       .  A
C1100      H1111   1.084       .  S
C1101      C1102   1.403       .  A
C1101      H1112   1.084       .  S
C1102      C1103   1.403       .  A
C1103      C1104   1.405       .  A
C1103      H1113   1.084       .  S
C1104      C1105   1.404       .  A
C1105      H1114   1.085       .  S
C1106      C1107   1.405       .  A
C1106      H1115   1.084       .  S
C1107      C1108   1.407       .  A
C1108      H1116   1.084       .  S
C1117      C1118   1.398       .  A
C1117      C1122   1.403       .  A
C1117      H1133   1.084       .  S
C1118      C1119   1.403       .  A
C1118      H1134   1.083       .  S
C1119      C1129   1.402       .  A
C1119      C1120   1.412       .  A
C1120      C1126   1.412       .  A
C1120      C1121   1.410       .  A
C1121      C1123   1.412       .  A
C1121      C1122   1.411       .  A
C1122      C1130   1.399       .  A
C1123      C1132   1.401       .  A
C1123      C1124   1.403       .  A
C1124      C1125   1.398       .  A
C1124      H1135   1.084       .  S
C1125      C1126   1.403       .  A
C1125      H1136   1.083       .  S
C1126      C1127   1.402       .  A
C1127      C1128   1.402       .  A
C1127      H1137   1.084       .  S
C1128      C1129   1.403       .  A
C1129      H1138   1.084       .  S
C1130      C1131   1.406       .  A
C1130      H1139   1.084       .  S
C1131      C1132   1.406       .  A
C1132      H1140   1.084       .  S
C1141      C1142   1.396       .  A
C1141      C1146   1.403       .  A
C1141      H1157   1.083       .  S
C1142      C1143   1.401       .  A
C1142      H1158   1.084       .  S
C1143      C1153   1.397       .  A
C1143      C1144   1.412       .  A
C1144      C1150   1.413       .  A
C1144      C1145   1.410       .  A
C1145      C1147   1.412       .  A
C1145      C1146   1.410       .  A
C1146      C1154   1.399       .  A
C1147      C1156   1.407       .  A
C1147      C1148   1.405       .  A
C1148      C1149   1.401       .  A
C1148      H1159   1.083       .  S
C1149      C1150   1.404       .  A
C1149      H1160   1.084       .  S
C1150      C1151   1.404       .  A
C1151      C1152   1.403       .  A
C1151      H1161   1.085       .  S
C1152      C1153   1.401       .  A
C1153      H1162   1.085       .  S
C1154      C1155   1.407       .  A
C1154      H1163   1.084       .  S
C1155      C1156   1.409       .  A
C1156      H1164   1.084       .  S
C1165      C1166   1.397       .  A
C1165      C1170   1.403       .  A
C1165      H1181   1.084       .  S
C1166      C1167   1.403       .  A
C1166      H1182   1.084       .  S
C1167      C1177   1.401       .  A
C1167      C1168   1.412       .  A
C1168      C1174   1.412       .  A
C1168      C1169   1.411       .  A
C1169      C1171   1.412       .  A
C1169      C1170   1.410       .  A
C1170      C1178   1.397       .  A
C1171      C1180   1.406       .  A
C1171      C1172   1.404       .  A
C1172      C1173   1.401       .  A
C1172      H1183   1.084       .  S
C1173      C1174   1.405       .  A
C1173      H1184   1.083       .  S
C1174      C1175   1.406       .  A
C1175      C1176   1.407       .  A
C1175      H1185   1.084       .  S
C1176      C1177   1.405       .  A
C1177      H1186   1.085       .  S
C1178      C1179   1.408       .  A
C1178      H1187   1.084       .  S
C1179      C1180   1.407       .  A
C1180      H1188   1.084       .  S
C1189      C1190   1.400       .  A
C1189      C1194   1.404       .  A
C1189      H1205   1.083       .  S
C1190      C1191   1.404       .  A
C1190      H1206   1.083       .  S
C1191      C1201   1.404       .  A
C1191      C1192   1.411       .  A
C1192      C1198   1.412       .  A
C1192      C1193   1.414       .  A
C1193      C1195   1.409       .  A
C1193      C1194   1.413       .  A
C1194      C1202   1.407       .  A
C1195      C1204   1.402       .  A
C1195      C1196   1.405       .  A
C1196      C1197   1.399       .  A
C1196      H1207   1.084       .  S
C1197      C1198   1.404       .  A
C1197      H1208   1.084       .  S
C1198      C1199   1.405       .  A
C1199      C1200   1.408       .  A
C1199      H1209   1.085       .  S
C1200      C1201   1.407       .  A
C1201      H1210   1.084       .  S
C1202      C1203   1.408       .  A
C1202      H1211   1.084       .  S
C1203      C1204   1.412       .  A
C1204      H1212   1.084       .  S
C1213      C1214   1.401       .  A
C1213      C1218   1.404       .  A
C1213      H1229   1.084       .  S
C1214      C1215   1.405       .  A
C1214      H1230   1.083       .  S
C1215      C1225   1.409       .  A
C1215      C1216   1.413       .  A
C1216      C1222   1.411       .  A
C1216      C1217   1.413       .  A
C1217      C1219   1.411       .  A
C1217      C1218   1.411       .  A
C1218      C1226   1.406       .  A
C1219      C1228   1.400       .  A
C1219      C1220   1.403       .  A
C1220      C1221   1.397       .  A
C1220      H1231   1.084       .  S
C1221      C1222   1.403       .  A
C1221      H1232   1.084       .  S
C1222      C1223   1.401       .  A
C1223      C1224   1.406       .  A
C1223      H1233   1.085       .  S
C1224      C1225   1.406       .  A
C1225      H1234   1.084       .  S
C1226      C1227   1.408       .  A
C1226      H1235   1.084       .  S
C1227      C1228   1.408       .  A
C1228      H1236   1.084       .  S
C1237      C1238   1.406       .  A
C1237      C1242   1.406       .  A
C1237      H1253   1.083       .  S
C1238      C1239   1.406       .  A
C1238      H1254   1.083       .  S
C1239      C1249   1.416       .  A
C1239      C1240   1.415       .  A
C1240      C1246   1.408       .  A
C1240      C1241   1.413       .  A
C1241      C1243   1.412       .  A
C1241      C1242   1.412       .  A
C1242      C1250   1.412       .  A
C1243      C1252   1.397       .  A
C1243      C1244   1.401       .  A
C1244      C1245   1.394       .  A
C1244      H1255   1.084       .  S
C1245      C1246   1.402       .  A
C1245      H1256   1.084       .  S
C1246      C1247   1.393       .  A
C1247      C1248   1.407       .  A
C1247      H1257   1.084       .  S
C1248      C1249   1.409       .  A
C1249      H1258   1.084       .  S
C1250      C1251   1.409       .  A
C1250      H1259   1.084       .  S
C1251      C1252   1.404       .  A
C1252      H1260   1.085       .  S
C1261      C1262   1.401       .  A
C1261      C1266   1.405       .  A
C1261      H1277   1.083       .  S
C1262      C1263   1.404       .  A
C1262      H1278   1.084       .  S
C1263      C1273   1.406       .  A
C1263      C1264   1.412       .  A
C1264      C1270   1.410       .  A
C1264      C1265   1.409       .  A
C1265      C1267   1.410       .  A
C1265      C1266   1.412       .  A
C1266      C1274   1.406       .  A
C1267      C1276   1.395       .  A
C1267      C1268   1.402       .  A
C1268      C1269   1.394       .  A
C1268      H1279   1.084       .  S
C1269      C1270   1.401       .  A
C1269      H1280   1.084       .  S
C1270      C1271   1.394       .  A
C1271      C1272   1.405       .  A
C1271      H1281   1.085       .  S
C1272      C1273   1.408       .  A
C1273      H1282   1.084       .  S
C1274      C1275   1.408       .  A
C1274      H1283   1.084       .  S
C1275      C1276   1.406       .  A
C1276      H1284   1.084       .  S
C1285      C1286   1.398       .  A
C1285      C1290   1.403       .  A
C1285      H1301   1.084       .  S
C1286      C1287   1.403       .  A
C1286      H1302   1.084       .  S
C1287      C1297   1.400       .  A
C1287      C1288   1.411       .  A
C1288      C1294   1.411       .  A
C1288      C1289   1.408       .  A
C1289      C1291   1.412       .  A
C1289      C1290   1.413       .  A
C1290      C1298   1.401       .  A
C1291      C1300   1.397       .  A
C1291      C1292   1.402       .  A
C1292      C1293   1.396       .  A
C1292      H1303   1.083       .  S
C1293      C1294   1.403       .  A
C1293      H1304   1.084       .  S
C1294      C1295   1.398       .  A
C1295      C1296   1.407       .  A
C1295      H1305   1.084       .  S
C1296      C1297   1.407       .  A
C1297      H1306   1.084       .  S
C1298      C1299   1.401       .  A
C1298      H1307   1.085       .  S
C1299      C1300   1.400       .  A
C1300      H1308   1.085       .  S
C1309      C1310   1.403       .  A
C1309      C1314   1.405       .  A
C1309      H1325   1.083       .  S
C1310      C1311   1.405       .  A
C1310      H1326   1.083       .  S
C1311      C1321   1.409       .  A
C1311      C1312   1.412       .  A
C1312      C1318   1.413       .  A
C1312      C1313   1.416       .  A
C1313      C1315   1.409       .  A
C1313      C1314   1.412       .  A
C1314      C1322   1.411       .  A
C1315      C1324   1.402       .  A
C1315      C1316   1.404       .  A
C1316      C1317   1.398       .  A
C1316      H1327   1.084       .  S
C1317      C1318   1.403       .  A
C1317      H1328   1.084       .  S
C1318      C1319   1.403       .  A
C1319      C1320   1.404       .  A
C1319      H1329   1.085       .  S
C1320      C1321   1.407       .  A
C1321      H1330   1.084       .  S
C1322      C1323   1.411       .  A
C1322      H1331   1.083       .  S
C1323      C1324   1.411       .  A
C1324      H1332   1.084       .  S
C1333      C1334   1.397       .  A
C1333      C1338   1.403       .  A
C1333      H1349   1.084       .  S
C1334      C1335   1.403       .  A
C1334      H1350   1.083       .  S
C1335      C1345   1.399       .  A
C1335      C1336   1.412       .  A
C1336      C1342   1.412       .  A
C1336      C1337   1.409       .  A
C1337      C1339   1.411       .  A
C1337      C1338   1.410       .  A
C1338      C1346   1.399       .  A
C1339      C1348   1.403       .  A
C1339      C1340   1.404       .  A
C1340      C1341   1.398       .  A
C1340      H1351   1.083       .  S
C1341      C1342   1.403       .  A
C1341      H1352   1.084       .  S
C1342      C1343   1.401       .  A
C1343      C1344   1.403       .  A
C1343      H1353   1.084       .  S
C1344      C1345   1.405       .  A
C1345      H1354   1.085       .  S
C1346      C1347   1.409       .  A
C1346      H1355   1.083       .  S
C1347      C1348   1.410       .  A
C1348      H1356   1.083       .  S
C1357      C1358   1.398       .  A
C1357      C1362   1.404       .  A
C1357      H1373   1.083       .  S
C1358      C1359   1.403       .  A
C1358      H1374   1.084       .  S
C1359      C1369   1.403       .  A
C1359      C1360   1.412       .  A
C1360      C1366   1.412       .  A
C1360      C1361   1.416       .  A
C1361      C1363   1.412       .  A
C1361      C1362   1.410       .  A
C1362      C1370   1.403       .  A
C1363      C1372   1.412       .  A
C1363      C1364   1.406       .  A
C1364      C1365   1.403       .  A
C1364      H1375   1.083       .  S
C1365      C1366   1.405       .  A
C1365      H1376   1.083       .  S
C1366      C1367   1.410       .  A
C1367      C1368   1.408       .  A
C1367      H1377   1.084       .  S
C1368      C1369   1.405       .  A
C1369      H1378   1.085       .  S
C1370      C1371   1.411       .  A
C1370      H1379   1.084       .  S
C1371      C1372   1.412       .  A
C1372      H1380   1.083       .  S
C1381      C1382   1.397       .  A
C1381      C1386   1.403       .  A
C1381      H1397   1.084       .  S
C1382      C1383   1.403       .  A
C1382      H1398   1.084       .  S
C1383      C1393   1.398       .  A
C1383      C1384   1.410       .  A
C1384      C1390   1.412       .  A
C1384      C1385   1.410       .  A
C1385      C1387   1.411       .  A
C1385      C1386   1.412       .  A
C1386      C1394   1.401       .  A
C1387      C1396   1.404       .  A
C1387      C1388   1.404       .  A
C1388      C1389   1.400       .  A
C1388      H1399   1.083       .  S
C1389      C1390   1.403       .  A
C1389      H1400   1.084       .  S
C1390      C1391   1.404       .  A
C1391      C1392   1.406       .  A
C1391      H1401   1.084       .  S
C1392      C1393   1.407       .  A
C1393      H1402   1.084       .  S
C1394      C1395   1.404       .  A
C1394      H1403   1.085       .  S
C1395      C1396   1.407       .  A
C1396      H1404   1.084       .  S
C1405      C1406   1.397       .  A
C1405      C1410   1.403       .  A
C1405      H1421   1.084       .  S
C1406      C1407   1.403       .  A
C1406      H1422   1.084       .  S
C1407      C1417   1.401       .  A
C1407      C1408   1.410       .  A
C1408      C1414   1.411       .  A
C1408      C1409   1.417       .  A
C1409      C1411   1.413       .  A
C1409      C1410   1.411       .  A
C1410      C1418   1.402       .  A
C1411      C1420   1.416       .  A
C1411      C1412   1.406       .  A
C1412      C1413   1.406       .  A
C1412      H1423   1.083       .  S
C1413      C1414   1.406       .  A
C1413      H1424   1.083       .  S
C1414      C1415   1.414       .  A
C1415      C1416   1.414       .  A
C1415      H1425   1.083       .  S
C1416      C1417   1.409       .  A
C1417      H1426   1.084       .  S
C1418      C1419   1.407       .  A
C1418      H1427   1.085       .  S
C1419      C1420   1.410       .  A
C1420      H1428   1.084       .  S
C1429      C1430   1.403       .  A
C1429      C1434   1.405       .  A
C1429      H1445   1.084       .  S
C1430      C1431   1.406       .  A
C1430      H1446   1.083       .  S
C1431      C1441   1.410       .  A
C1431      C1432   1.411       .  A
C1432      C1438   1.411   1_554  A
C1432      C1433   1.416       .  A
C1433      C1435   1.411   1_554  A
C1433      C1434   1.413       .  A
C1434      C1442   1.411       .  A
C1435      C1444   1.403       .  A
C1435      C1436   1.403       .  A
C1436      C1437   1.399       .  A
C1436      H1447   1.084       .  S
C1437      C1438   1.404       .  A
C1437      H1448   1.083       .  S
C1438      C1439   1.406       .  A
C1439      C1440   1.411   1_556  A
C1439      H1449   1.084       .  S
C1440      C1441   1.413       .  A
C1441      H1450   1.083       .  S
C1442      C1443   1.408       .  A
C1442      H1451   1.084       .  S
C1443      C1444   1.407   1_554  A
C1444      H1452   1.085       .  S
C1453      C1454   1.403       .  A
C1453      C1458   1.405       .  A
C1453      H1469   1.083       .  S
C1454      C1455   1.405       .  A
C1454      H1470   1.083       .  S
C1455      C1465   1.412       .  A
C1455      C1456   1.413       .  A
C1456      C1462   1.411       .  A
C1456      C1457   1.419       .  A
C1457      C1459   1.411       .  A
C1457      C1458   1.412       .  A
C1458      C1466   1.411       .  A
C1459      C1468   1.407       .  A
C1459      C1460   1.405       .  A
C1460      C1461   1.401       .  A
C1460      H1471   1.084       .  S
C1461      C1462   1.405       .  A
C1461      H1472   1.084       .  S
C1462      C1463   1.407       .  A
C1463      C1464   1.409       .  A
C1463      H1473   1.085       .  S
C1464      C1465   1.407       .  A
C1465      H1474   1.084       .  S
C1466      C1467   1.410       .  A
C1466      H1475   1.084       .  S
C1467      C1468   1.412       .  A
C1468      H1476   1.084       .  S
C1477      C1478   1.403       .  A
C1477      C1482   1.404       .  A
C1477      H1493   1.084       .  S
C1478      C1479   1.406       .  A
C1478      H1494   1.083       .  S
C1479      C1489   1.409       .  A
C1479      C1480   1.411       .  A
C1480      C1486   1.412       .  A
C1480      C1481   1.414       .  A
C1481      C1483   1.410       .  A
C1481      C1482   1.413       .  A
C1482      C1490   1.409       .  A
C1483      C1492   1.399       .  A
C1483      C1484   1.403       .  A
C1484      C1485   1.397       .  A
C1484      H1495   1.084       .  S
C1485      C1486   1.403       .  A
C1485      H1496   1.084       .  S
C1486      C1487   1.402       .  A
C1487      C1488   1.407       .  A
C1487      H1497   1.084       .  S
C1488      C1489   1.411       .  A
C1489      H1498   1.084       .  S
C1490      C1491   1.409       .  A
C1490      H1499   1.084       .  S
C1491      C1492   1.408       .  A
C1492      H1500   1.084       .  S
C1501      C1502   1.399       .  A
C1501      C1506   1.403       .  A
C1501      H1517   1.084       .  S
C1502      C1503   1.404       .  A
C1502      H1518   1.084       .  S
C1503      C1513   1.404       .  A
C1503      C1504   1.411       .  A
C1504      C1510   1.411       .  A
C1504      C1505   1.414       .  A
C1505      C1507   1.413       .  A
C1505      C1506   1.411       .  A
C1506      C1514   1.401       .  A
C1507      C1516   1.409       .  A
C1507      C1508   1.404       .  A
C1508      C1509   1.402       .  A
C1508      H1519   1.083       .  S
C1509      C1510   1.404       .  A
C1509      H1520   1.083       .  S
C1510      C1511   1.407       .  A
C1511      C1512   1.408       .  A
C1511      H1521   1.084       .  S
C1512      C1513   1.411       .  A
C1513      H1522   1.084       .  S
C1514      C1515   1.406       .  A
C1514      H1523   1.085       .  S
C1515      C1516   1.406       .  A
C1516      H1524   1.084       .  S
C1525      C1526   1.403       .  A
C1525      C1530   1.405       .  A
C1525      H1541   1.083       .  S
C1526      C1527   1.405       .  A
C1526      H1542   1.083       .  S
C1527      C1537   1.407       .  A
C1527      C1528   1.411       .  A
C1528      C1534   1.413       .  A
C1528      C1529   1.413       .  A
C1529      C1531   1.409       .  A
C1529      C1530   1.413       .  A
C1530      C1538   1.410       .  A
C1531      C1540   1.397       .  A
C1531      C1532   1.403       .  A
C1532      C1533   1.396       .  A
C1532      H1543   1.084       .  S
C1533      C1534   1.402       .  A
C1533      H1544   1.084       .  S
C1534      C1535   1.401       .  A
C1535      C1536   1.402       .  A
C1535      H1545   1.085       .  S
C1536      C1537   1.408       .  A
C1537      H1546   1.084       .  S
C1538      C1539   1.409       .  A
C1538      H1547   1.084       .  S
C1539      C1540   1.409       .  A
C1540      H1548   1.084       .  S
C1549      C1550   1.402       .  A
C1549      C1554   1.405       .  A
C1549      H1565   1.084       .  S
C1550      C1551   1.405       .  A
C1550      H1566   1.084       .  S
C1551      C1561   1.407       .  A
C1551      C1552   1.412       .  A
C1552      C1558   1.412       .  A
C1552      C1553   1.411       .  A
C1553      C1555   1.411       .  A
C1553      C1554   1.413       .  A
C1554      C1562   1.408       .  A
C1555      C1564   1.396       .  A
C1555      C1556   1.402       .  A
C1556      C1557   1.395       .  A
C1556      H1567   1.084       .  S
C1557      C1558   1.401       .  A
C1557      H1568   1.084       .  S
C1558      C1559   1.398       .  A
C1559      C1560   1.401       .  A
C1559      H1569   1.085       .  S
C1560      C1561   1.406       .  A
C1561      H1570   1.084       .  S
C1562      C1563   1.407       .  A
C1562      H1571   1.084       .  S
C1563      C1564   1.404       .  A
C1564      H1572   1.085       .  S
C1573      C1574   1.395       .  A
C1573      C1578   1.402       .  A
C1573      H1589   1.084       .  S
C1574      C1575   1.401       .  A
C1574      H1590   1.084       .  S
C1575      C1585   1.398       .  A
C1575      C1576   1.412       .  A
C1576      C1582   1.412       .  A
C1576      C1577   1.412       .  A
C1577      C1579   1.413       .  A
C1577      C1578   1.410       .  A
C1578      C1586   1.396       .  A
C1579      C1588   1.410       .  A
C1579      C1580   1.405       .  A
C1580      C1581   1.403       .  A
C1580      H1591   1.083       .  S
C1581      C1582   1.405       .  A
C1581      H1592   1.083       .  S
C1582      C1583   1.408       .  A
C1583      C1584   1.407       .  A
C1583      H1593   1.084       .  S
C1584      C1585   1.402       .  A
C1585      H1594   1.085       .  S
C1586      C1587   1.405       .  A
C1586      H1595   1.085       .  S
C1587      C1588   1.408       .  A
C1588      H1596   1.084       .  S
C1597      C1598   1.400       .  A
C1597      C1602   1.404       .  A
C1597      H1613   1.083       .  S
C1598      C1599   1.403       .  A
C1598      H1614   1.083       .  S
C1599      C1609   1.405       .  A
C1599      C1600   1.411       .  A
C1600      C1606   1.413       .  A
C1600      C1601   1.416       .  A
C1601      C1603   1.409       .  A
C1601      C1602   1.412       .  A
C1602      C1610   1.408       .  A
C1603      C1612   1.406       .  A
C1603      C1604   1.406       .  A
C1604      C1605   1.402       .  A
C1604      H1615   1.084       .  S
C1605      C1606   1.405       .  A
C1605      H1616   1.084       .  S
C1606      C1607   1.408       .  A
C1607      C1608   1.409       .  A
C1607      H1617   1.085       .  S
C1608      C1609   1.405       .  A
C1609      H1618   1.084       .  S
C1610      C1611   1.409       .  A
C1610      H1619   1.083       .  S
C1611      C1612   1.414       .  A
C1612      H1620   1.084       .  S
C1621      C1622   1.400       .  A
C1621      C1626   1.404       .  A
C1621      H1637   1.083       .  S
C1622      C1623   1.404       .  A
C1622      H1638   1.084       .  S
C1623      C1633   1.404       .  A
C1623      C1624   1.412       .  A
C1624      C1630   1.410       .  A
C1624      C1625   1.409       .  A
C1625      C1627   1.411       .  A
C1625      C1626   1.412       .  A
C1626      C1634   1.404       .  A
C1627      C1636   1.398       .  A
C1627      C1628   1.402       .  A
C1628      C1629   1.396       .  A
C1628      H1639   1.084       .  S
C1629      C1630   1.403       .  A
C1629      H1640   1.084       .  S
C1630      C1631   1.396       .  A
C1631      C1632   1.407       .  A
C1631      H1641   1.084       .  S
C1632      C1633   1.407       .  A
C1633      H1642   1.084       .  S
C1634      C1635   1.405       .  A
C1634      H1643   1.084       .  S
C1635      C1636   1.405       .  A
C1636      H1644   1.085       .  S
C1645      C1646   1.404       .  A
C1645      C1650   1.406       .  A
C1645      H1661   1.084       .  S
C1646      C1647   1.406       .  A
C1646      H1662   1.083       .  S
C1647      C1657   1.413       .  A
C1647      C1648   1.414       .  A
C1648      C1654   1.410       .  A
C1648      C1649   1.413       .  A
C1649      C1651   1.412       .  A
C1649      C1650   1.412       .  A
C1650      C1658   1.409       .  A
C1651      C1660   1.397       .  A
C1651      C1652   1.401       .  A
C1652      C1653   1.394       .  A
C1652      H1663   1.084       .  S
C1653      C1654   1.402       .  A
C1653      H1664   1.084       .  S
C1654      C1655   1.395       .  A
C1655      C1656   1.404       .  A
C1655      H1665   1.085       .  S
C1656      C1657   1.408       .  A
C1657      H1666   1.084       .  S
C1658      C1659   1.407       .  A
C1658      H1667   1.084       .  S
C1659      C1660   1.402       .  A
C1660      H1668   1.085       .  S
C1669      C1670   1.404       .  A
C1669      C1674   1.406       .  A
C1669      H1685   1.083       .  S
C1670      C1671   1.406       .  A
C1670      H1686   1.083       .  S
C1671      C1681   1.413       .  A
C1671      C1672   1.412       .  A
C1672      C1678   1.409       .  A
C1672      C1673   1.415       .  A
C1673      C1675   1.412       .  A
C1673      C1674   1.412       .  A
C1674      C1682   1.412       .  A
C1675      C1684   1.400       .  A
C1675      C1676   1.402       .  A
C1676      C1677   1.396       .  A
C1676      H1687   1.084       .  S
C1677      C1678   1.403       .  A
C1677      H1688   1.084       .  S
C1678      C1679   1.399       .  A
C1679      C1680   1.411       .  A
C1679      H1689   1.083       .  S
C1680      C1681   1.412       .  A
C1681      H1690   1.083       .  S
C1682      C1683   1.409       .  A
C1682      H1691   1.084       .  S
C1683      C1684   1.405       .  A
C1684      H1692   1.085       .  S
C1693      C1694   1.397       .  A
C1693      C1698   1.403       .  A
C1693      H1709   1.084       .  S
C1694      C1695   1.402       .  A
C1694      H1710   1.084       .  S
C1695      C1705   1.400       .  A
C1695      C1696   1.413       .  A
C1696      C1702   1.411       .  A
C1696      C1697   1.408       .  A
C1697      C1699   1.412       .  A
C1697      C1698   1.411       .  A
C1698      C1706   1.399       .  A
C1699      C1708   1.401       .  A
C1699      C1700   1.403       .  A
C1700      C1701   1.398       .  A
C1700      H1711   1.084   1_545  S
C1701      C1702   1.403       .  A
C1701      H1712   1.084   1_545  S
C1702      C1703   1.399       .  A
C1703      C1704   1.406       .  A
C1703      H1713   1.085       .  S
C1704      C1705   1.403       .  A
C1705      H1714   1.084       .  S
C1706      C1707   1.404       .  A
C1706      H1715   1.084       .  S
C1707      C1708   1.406       .  A
C1708      H1716   1.085       .  S
C1717      C1718   1.398       .  A
C1717      C1722   1.403       .  A
C1717      H1733   1.084       .  S
C1718      C1719   1.403       .  A
C1718      H1734   1.083       .  S
C1719      C1729   1.403       .  A
C1719      C1720   1.413       .  A
C1720      C1726   1.409       .  A
C1720      C1721   1.409       .  A
C1721      C1723   1.413       .  A
C1721      C1722   1.412       .  A
C1722      C1730   1.401       .  A
C1723      C1732   1.398       .  A
C1723      C1724   1.402       .  A
C1724      C1725   1.396       .  A
C1724      H1735   1.084       .  S
C1725      C1726   1.403       .  A
C1725      H1736   1.084       .  S
C1726      C1727   1.396       .  A
C1727      C1728   1.409       .  A
C1727      H1737   1.084       .  S
C1728      C1729   1.405       .  A
C1729      H1738   1.084       .  S
C1730      C1731   1.403       .  A
C1730      H1739   1.085       .  S
C1731      C1732   1.403       .  A
C1732      H1740   1.085       .  S
C1741      C1742   1.399       .  A
C1741      C1746   1.404       .  A
C1741      H1757   1.084       .  S
C1742      C1743   1.404       .  A
C1742      H1758   1.084       .  S
C1743      C1753   1.404       .  A
C1743      C1744   1.411       .  A
C1744      C1750   1.413       .  A
C1744      C1745   1.418       .  A
C1745      C1747   1.413       .  A
C1745      C1746   1.412       .  A
C1746      C1754   1.406       .  A
C1747      C1756   1.414       .  A
C1747      C1748   1.406       .  A
C1748      C1749   1.405       .  A
C1748      H1759   1.083       .  S
C1749      C1750   1.405       .  A
C1749      H1760   1.083       .  S
C1750      C1751   1.413       .  A
C1751      C1752   1.410       .  A
C1751      H1761   1.084       .  S
C1752      C1753   1.410       .  A
C1753      H1762   1.084       .  S
C1754      C1755   1.407       .  A
C1754      H1763   1.085       .  S
C1755      C1756   1.409       .  A
C1756      H1764   1.084       .  S
C1765      C1766   1.398       .  A
C1765      C1770   1.403       .  A
C1765      H1781   1.084       .  S
C1766      C1767   1.404       .  A
C1766      H1782   1.084       .  S
C1767      C1777   1.402       .  A
C1767      C1768   1.410       .  A
C1768      C1774   1.414       .  A
C1768      C1769   1.418       .  A
C1769      C1771   1.412       .  A
C1769      C1770   1.412       .  A
C1770      C1778   1.403       .  A
C1771      C1780   1.413       .  A
C1771      C1772   1.406       .  A
C1772      C1773   1.405       .  A
C1772      H1783   1.083       .  S
C1773      C1774   1.406       .  A
C1773      H1784   1.083       .  S
C1774      C1775   1.415       .  A
C1775      C1776   1.409       .  A
C1775      H1785   1.084       .  S
C1776      C1777   1.410       .  A
C1777      H1786   1.084       .  S
C1778      C1779   1.407       .  A
C1778      H1787   1.085       .  S
C1779      C1780   1.409       .  A
C1780      H1788   1.084       .  S
C1789      C1790   1.401       .  A
C1789      C1794   1.405       .  A
C1789      H1805   1.083       .  S
C1790      C1791   1.404       .  A
C1790      H1806   1.083       .  S
C1791      C1801   1.409       .  A
C1791      C1792   1.413       .  A
C1792      C1798   1.408       .  A
C1792      C1793   1.414       .  A
C1793      C1795   1.413       .  A
C1793      C1794   1.410       .  A
C1794      C1802   1.404       .  A
C1795      C1804   1.406       .  A
C1795      C1796   1.403       .  A
C1796      C1797   1.399       .  A
C1796      H1807   1.084       .  S
C1797      C1798   1.404       .  A
C1797      H1808   1.084       .  S
C1798      C1799   1.400       .  A
C1799      C1800   1.411       .  A
C1799      H1809   1.084       .  S
C1800      C1801   1.408       .  A
C1801      H1810   1.084       .  S
C1802      C1803   1.409       .  A
C1802      H1811   1.084       .  S
C1803      C1804   1.407       .  A
C1804      H1812   1.084       .  S
C1813      C1814   1.406       .  A
C1813      C1818   1.406       .  A
C1813      H1829   1.083       .  S
C1814      C1815   1.407       .  A
C1814      H1830   1.083       .  S
C1815      C1825   1.415       .  A
C1815      C1816   1.412       .  A
C1816      C1822   1.412       .  A
C1816      C1817   1.420       .  A
C1817      C1819   1.410       .  A
C1817      C1818   1.414       .  A
C1818      C1826   1.417       .  A
C1819      C1828   1.405       .  A
C1819      C1820   1.404       .  A
C1820      C1821   1.399       .  A
C1820      H1831   1.084       .  S
C1821      C1822   1.403       .  A
C1821      H1832   1.084       .  S
C1822      C1823   1.406       .  A
C1823      C1824   1.408       .  A
C1823      H1833   1.084       .  S
C1824      C1825   1.412       .  A
C1825      H1834   1.084       .  S
C1826      C1827   1.411       .  A
C1826      H1835   1.084       .  S
C1827      C1828   1.411       .  A
C1828      H1836   1.084       .  S
C1837      C1838   1.401       .  A
C1837      C1842   1.404       .  A
C1837      H1853   1.084       .  S
C1838      C1839   1.405       .  A
C1838      H1854   1.083       .  S
C1839      C1849   1.407       .  A
C1839      C1840   1.412       .  A
C1840      C1846   1.411       .  A
C1840      C1841   1.412       .  A
C1841      C1843   1.410       .  A
C1841      C1842   1.411       .  A
C1842      C1850   1.405       .  A
C1843      C1852   1.400       .  A
C1843      C1844   1.403       .  A
C1844      C1845   1.397       .  A
C1844      H1855   1.084       .  S
C1845      C1846   1.402       .  A
C1845      H1856   1.082       .  S
C1846      C1847   1.400       .  A
C1847      C1848   1.404       .  A
C1847      H1857   1.085       .  S
C1848      C1849   1.409       .  A
C1849      H1858   1.084       .  S
C1850      C1851   1.410       .  A
C1850      H1859   1.083       .  S
C1851      C1852   1.410       .  A
C1852      H1860   1.084       .  S
C1861      C1862   1.400       .  A
C1861      C1866   1.404   1_455  A
C1861      H1877   1.084       .  S
C1862      C1863   1.404   1_455  A
C1862      H1878   1.083       .  S
C1863      C1873   1.406       .  A
C1863      C1864   1.413       .  A
C1864      C1870   1.410       .  A
C1864      C1865   1.413       .  A
C1865      C1867   1.413       .  A
C1865      C1866   1.412       .  A
C1866      C1874   1.404       .  A
C1867      C1876   1.404       .  A
C1867      C1868   1.403       .  A
C1868      C1869   1.399       .  A
C1868      H1879   1.084       .  S
C1869      C1870   1.404       .  A
C1869      H1880   1.084       .  S
C1870      C1871   1.401       .  A
C1871      C1872   1.408       .  A
C1871      H1881   1.084       .  S
C1872      C1873   1.407       .  A
C1873      H1882   1.084   1_655  S
C1874      C1875   1.405       .  A
C1874      H1883   1.085   1_655  S
C1875      C1876   1.406       .  A
C1876      H1884   1.085       .  S
C1885      C1886   1.397       .  A
C1885      C1890   1.402       .  A
C1885      H1901   1.084       .  S
C1886      C1887   1.403       .  A
C1886      H1902   1.084       .  S
C1887      C1897   1.399       .  A
C1887      C1888   1.409       .  A
C1888      C1894   1.413       .  A
C1888      C1889   1.416       .  A
C1889      C1891   1.412       .  A
C1889      C1890   1.412       .  A
C1890      C1898   1.402       .  A
C1891      C1900   1.412       .  A
C1891      C1892   1.406       .  A
C1892      C1893   1.405       .  A
C1892      H1903   1.083       .  S
C1893      C1894   1.406       .  A
C1893      H1904   1.083       .  S
C1894      C1895   1.413       .  A
C1895      C1896   1.412       .  A
C1895      H1905   1.084       .  S
C1896      C1897   1.411       .  A
C1897      H1906   1.084       .  S
C1898      C1899   1.404       .  A
C1898      H1907   1.085       .  S
C1899      C1900   1.410       .  A
C1900      H1908   1.084       .  S
C1909      C1910   1.398       .  A
C1909      C1914   1.403       .  A
C1909      H1925   1.084       .  S
C1910      C1911   1.403       .  A
C1910      H1926   1.082       .  S
C1911      C1921   1.401       .  A
C1911      C1912   1.409       .  A
C1912      C1918   1.414       .  A
C1912      C1913   1.417       .  A
C1913      C1915   1.410       .  A
C1913      C1914   1.410       .  A
C1914      C1922   1.403       .  A
C1915      C1924   1.411       .  A
C1915      C1916   1.406       .  A
C1916      C1917   1.405       .  A
C1916      H1927   1.083       .  S
C1917      C1918   1.406       .  A
C1917      H1928   1.083       .  S
C1918      C1919   1.416       .  A
C1919      C1920   1.410       .  A
C1919      H1929   1.084       .  S
C1920      C1921   1.408       .  A
C1921      H1930   1.085       .  S
C1922      C1923   1.412       .  A
C1922      H1931   1.083       .  S
C1923      C1924   1.413       .  A
C1924      H1932   1.083       .  S
C1933      C1934   1.403       .  A
C1933      C1938   1.405       .  A
C1933      H1949   1.083       .  S
C1934      C1935   1.405       .  A
C1934      H1950   1.083       .  S
C1935      C1945   1.412       .  A
C1935      C1936   1.414       .  A
C1936      C1942   1.409       .  A
C1936      C1937   1.412       .  A
C1937      C1939   1.412       .  A
C1937      C1938   1.412       .  A
C1938      C1946   1.408       .  A
C1939      C1948   1.395       .  A
C1939      C1940   1.401       .  A
C1940      C1941   1.394       .  A
C1940      H1951   1.084       .  S
C1941      C1942   1.403       .  A
C1941      H1952   1.084       .  S
C1942      C1943   1.395       .  A
C1943      C1944   1.408       .  A
C1943      H1953   1.084       .  S
C1944      C1945   1.409       .  A
C1945      H1954   1.084       .  S
C1946      C1947   1.406       .  A
C1946      H1955   1.084       .  S
C1947      C1948   1.402       .  A
C1948      H1956   1.085       .  S
C1957      C1958   1.400       .  A
C1957      C1962   1.404       .  A
C1957      H1973   1.083       .  S
C1958      C1959   1.403       .  A
C1958      H1974   1.084       .  S
C1959      C1969   1.405       .  A
C1959      C1960   1.413       .  A
C1960      C1966   1.409       .  A
C1960      C1961   1.409       .  A
C1961      C1963   1.411       .  A
C1961      C1962   1.412       .  A
C1962      C1970   1.404       .  A
C1963      C1972   1.397       .  A
C1963      C1964   1.402       .  A
C1964      C1965   1.395       .  A
C1964      H1975   1.084       .  S
C1965      C1966   1.402       .  A
C1965      H1976   1.084       .  S
C1966      C1967   1.394       .  A
C1967      C1968   1.407       .  A
C1967      H1977   1.084       .  S
C1968      C1969   1.406       .  A
C1969      H1978   1.084       .  S
C1970      C1971   1.407       .  A
C1970      H1979   1.084       .  S
C1971      C1972   1.405       .  A
C1972      H1980   1.085       .  S
C1981      C1982   1.396       .  A
C1981      C1986   1.403       .  A
C1981      H1997   1.084       .  S
C1982      C1983   1.401       .  A
C1982      H1998   1.084       .  S
C1983      C1993   1.399       .  A
C1983      C1984   1.413       .  A
C1984      C1990   1.411       .  A
C1984      C1985   1.408       .  A
C1985      C1987   1.412       .  A
C1985      C1986   1.410       .  A
C1986      C1994   1.397       .  A
C1987      C1996   1.401       .  A
C1987      C1988   1.403       .  A
C1988      C1989   1.398       .  A
C1988      H1999   1.084       .  S
C1989      C1990   1.404       .  A
C1989      H2000   1.084       .  S
C1990      C1991   1.399       .  A
C1991      C1992   1.405       .  A
C1991      H2001   1.085       .  S
C1992      C1993   1.400       .  A
C1993      H2002   1.084       .  S
C1994      C1995   1.406       .  A
C1994      H2003   1.084       .  S
C1995      C1996   1.406       .  A
C1996      H2004   1.084       .  S
C2005      C2006   1.408       .  A
C2005      C2010   1.408       .  A
C2005      H2021   1.083       .  S
C2006      C2007   1.408       .  A
C2006      H2022   1.083       .  S
C2007      C2017   1.418       .  A
C2007      C2008   1.413       .  A
C2008      C2014   1.410       .  A
C2008      C2009   1.416       .  A
C2009      C2011   1.410       .  A
C2009      C2010   1.413       .  A
C2010      C2018   1.418       .  A
C2011      C2020   1.397       .  A
C2011      C2012   1.401       .  A
C2012      C2013   1.394       .  A
C2012      H2023   1.084       .  S
C2013      C2014   1.401       .  A
C2013      H2024   1.084       .  S
C2014      C2015   1.396       .  A
C2015      C2016   1.403       .  A
C2015      H2025   1.085       .  S
C2016      C2017   1.413       .  A
C2017      H2026   1.084       .  S
C2018      C2019   1.414       .  A
C2018      H2027   1.084       .  S
C2019      C2020   1.405       .  A
C2020      H2028   1.085       .  S
C2029      C2030   1.398       .  A
C2029      C2034   1.402       .  A
C2029      H2045   1.079       .  S
C2030      C2031   1.403       .  A
C2030      H2046   1.084       .  S
C2031      C2041   1.403       .  A
C2031      C2032   1.410       .  A
C2032      C2038   1.410       .  A
C2032      C2033   1.416       .  A
C2033      C2035   1.412       .  A
C2033      C2034   1.410       .  A
C2034      C2042   1.403       .  A
C2035      C2044   1.409       .  A
C2035      C2036   1.404       .  A
C2036      C2037   1.402       .  A
C2036      H2047   1.083       .  S
C2037      C2038   1.405       .  A
C2037      H2048   1.083       .  S
C2038      C2039   1.409       .  A
C2039      C2040   1.412       .  A
C2039      H2049   1.083       .  S
C2040      C2041   1.411       .  A
C2041      H2050   1.084       .  S
C2042      C2043   1.406       .  A
C2042      H2051   1.085       .  S
C2043      C2044   1.407       .  A
C2044      H2052   1.084       .  S
C2053      C2054   1.399       .  A
C2053      C2058   1.403   1_455  A
C2053      H2069   1.084       .  S
C2054      C2055   1.403   1_455  A
C2054      H2070   1.084       .  S
C2055      C2065   1.402       .  A
C2055      C2056   1.411       .  A
C2056      C2062   1.412       .  A
C2056      C2057   1.414       .  A
C2057      C2059   1.412       .  A
C2057      C2058   1.412       .  A
C2058      C2066   1.403       .  A
C2059      C2068   1.408       .  A
C2059      C2060   1.405       .  A
C2060      C2061   1.401       .  A
C2060      H2071   1.083       .  S
C2061      C2062   1.404       .  A
C2061      H2072   1.084       .  S
C2062      C2063   1.407       .  A
C2063      C2064   1.407       .  A
C2063      H2073   1.084       .  S
C2064      C2065   1.408       .  A
C2065      H2074   1.085   1_655  S
C2066      C2067   1.406       .  A
C2066      H2075   1.084   1_655  S
C2067      C2068   1.408       .  A
C2068      H2076   1.084       .  S
C2077      C2078   1.399       .  A
C2077      C2082   1.403       .  A
C2077      H2093   1.083       .  S
C2078      C2079   1.403       .  A
C2078      H2094   1.084       .  S
C2079      C2089   1.401       .  A
C2079      C2080   1.411       .  A
C2080      C2086   1.412       .  A
C2080      C2081   1.410       .  A
C2081      C2083   1.410       .  A
C2081      C2082   1.413       .  A
C2082      C2090   1.404       .  A
C2083      C2092   1.399       .  A
C2083      C2084   1.404       .  A
C2084      C2085   1.397       .  A
C2084      H2095   1.084       .  S
C2085      C2086   1.403       .  A
C2085      H2096   1.084       .  S
C2086      C2087   1.401       .  A
C2087      C2088   1.405       .  A
C2087      H2097   1.085       .  S
C2088      C2089   1.405       .  A
C2089      H2098   1.084       .  S
C2090      C2091   1.405       .  A
C2090      H2099   1.084       .  S
C2091      C2092   1.408       .  A
C2092      H2100   1.084       .  S
C2101      C2102   1.396       .  A
C2101      C2106   1.403       .  A
C2101      H2117   1.084       .  S
C2102      C2103   1.403       .  A
C2102      H2118   1.084       .  S
C2103      C2113   1.397       .  A
C2103      C2104   1.409       .  A
C2104      C2110   1.413       .  A
C2104      C2105   1.411       .  A
C2105      C2107   1.411       .  A
C2105      C2106   1.412       .  A
C2106      C2114   1.399       .  A
C2107      C2116   1.405       .  A
C2107      C2108   1.404       .  A
C2108      C2109   1.400       .  A
C2108      H2119   1.083       .  S
C2109      C2110   1.403       .  A
C2109      H2120   1.083       .  S
C2110      C2111   1.406       .  A
C2111      C2112   1.406       .  A
C2111      H2121   1.084       .  S
C2112      C2113   1.408       .  A
C2113      H2122   1.084       .  S
C2114      C2115   1.406       .  A
C2114      H2123   1.085       .  S
C2115      C2116   1.407       .  A
C2116      H2124   1.084       .  S
C2125      C2126   1.396       .  A
C2125      C2130   1.402       .  A
C2125      H2141   1.084   1_545  S
C2126      C2127   1.402       .  A
C2126      H2142   1.084   1_545  S
C2127      C2137   1.396       .  A
C2127      C2128   1.411       .  A
C2128      C2134   1.412       .  A
C2128      C2129   1.406       .  A
C2129      C2131   1.411       .  A
C2129      C2130   1.412       .  A
C2130      C2138   1.398       .  A
C2131      C2140   1.398       .  A
C2131      C2132   1.403       .  A
C2132      C2133   1.398       .  A
C2132      H2143   1.084       .  S
C2133      C2134   1.403       .  A
C2133      H2144   1.084       .  S
C2134      C2135   1.400       .  A
C2135      C2136   1.405       .  A
C2135      H2145   1.085       .  S
C2136      C2137   1.403       .  A
C2137      H2146   1.085       .  S
C2138      C2139   1.403       .  A
C2138      H2147   1.085       .  S
C2139      C2140   1.403       .  A
C2140      H2148   1.084       .  S
C2149      C2150   1.401       .  A
C2149      C2154   1.404       .  A
C2149      H2165   1.084       .  S
C2150      C2151   1.405       .  A
C2150      H2166   1.083       .  S
C2151      C2161   1.407       .  A
C2151      C2152   1.412       .  A
C2152      C2158   1.409       .  A
C2152      C2153   1.409       .  A
C2153      C2155   1.411       .  A
C2153      C2154   1.411       .  A
C2154      C2162   1.404       .  A
C2155      C2164   1.396       .  A
C2155      C2156   1.401       .  A
C2156      C2157   1.394       .  A
C2156      H2167   1.084       .  S
C2157      C2158   1.402       .  A
C2157      H2168   1.084       .  S
C2158      C2159   1.394       .  A
C2159      C2160   1.406       .  A
C2159      H2169   1.084       .  S
C2160      C2161   1.409       .  A
C2161      H2170   1.084       .  S
C2162      C2163   1.407       .  A
C2162      H2171   1.084       .  S
C2163      C2164   1.404       .  A
C2164      H2172   1.085       .  S
C2173      C2174   1.397       .  A
C2173      C2178   1.402       .  A
C2173      H2189   1.084       .  S
C2174      C2175   1.403       .  A
C2174      H2190   1.083       .  S
C2175      C2185   1.400       .  A
C2175      C2176   1.411       .  A
C2176      C2182   1.411       .  A
C2176      C2177   1.411       .  A
C2177      C2179   1.413       .  A
C2177      C2178   1.411       .  A
C2178      C2186   1.399       .  A
C2179      C2188   1.405       .  A
C2179      C2180   1.404       .  A
C2180      C2181   1.401       .  A
C2180      H2191   1.084       .  S
C2181      C2182   1.405       .  A
C2181      H2192   1.083       .  S
C2182      C2183   1.405       .  A
C2183      C2184   1.410       .  A
C2183      H2193   1.084       .  S
C2184      C2185   1.407       .  A
C2185      H2194   1.084       .  S
C2186      C2187   1.402       .  A
C2186      H2195   1.085       .  S
C2187      C2188   1.405       .  A
C2188      H2196   1.084       .  S
C2197      C2198   1.399       .  A
C2197      C2202   1.403       .  A
C2197      H2213   1.084       .  S
C2198      C2199   1.404       .  A
C2198      H2214   1.083       .  S
C2199      C2209   1.403       .  A
C2199      C2200   1.411       .  A
C2200      C2206   1.413       .  A
C2200      C2201   1.412       .  A
C2201      C2203   1.410       .  A
C2201      C2202   1.413       .  A
C2202      C2210   1.404       .  A
C2203      C2212   1.402       .  A
C2203      C2204   1.404   1_655  A
C2204      C2205   1.399       .  A
C2204      H2215   1.084       .  S
C2205      C2206   1.403   1_455  A
C2205      H2216   1.084       .  S
C2206      C2207   1.404       .  A
C2207      C2208   1.406       .  A
C2207      H2217   1.084   1_655  S
C2208      C2209   1.407       .  A
C2209      H2218   1.084       .  S
C2210      C2211   1.405       .  A
C2210      H2219   1.084       .  S
C2211      C2212   1.409       .  A
C2212      H2220   1.084   1_655  S
C2221      C2222   1.399       .  A
C2221      C2226   1.404       .  A
C2221      H2237   1.084       .  S
C2222      C2223   1.403       .  A
C2222      H2238   1.083       .  S
C2223      C2233   1.402       .  A
C2223      C2224   1.411       .  A
C2224      C2230   1.413       .  A
C2224      C2225   1.412       .  A
C2225      C2227   1.411       .  A
C2225      C2226   1.411       .  A
C2226      C2234   1.403       .  A
C2227      C2236   1.404       .  A
C2227      C2228   1.404       .  A
C2228      C2229   1.399       .  A
C2228      H2239   1.083       .  S
C2229      C2230   1.403       .  A
C2229      H2240   1.083       .  S
C2230      C2231   1.405       .  A
C2231      C2232   1.403       .  A
C2231      H2241   1.084       .  S
C2232      C2233   1.406       .  A
C2233      H2242   1.085       .  S
C2234      C2235   1.410       .  A
C2234      H2243   1.084       .  S
C2235      C2236   1.408       .  A
C2236      H2244   1.084       .  S
C2245      C2246   1.404       .  A
C2245      C2250   1.406       .  A
C2245      H2261   1.083       .  S
C2246      C2247   1.405       .  A
C2246      H2262   1.083       .  S
C2247      C2257   1.413       .  A
C2247      C2248   1.414       .  A
C2248      C2254   1.409       .  A
C2248      C2249   1.413       .  A
C2249      C2251   1.411       .  A
C2249      C2250   1.411       .  A
C2250      C2258   1.410       .  A
C2251      C2260   1.398       .  A
C2251      C2252   1.402       .  A
C2252      C2253   1.395       .  A
C2252      H2263   1.084       .  S
C2253      C2254   1.402       .  A
C2253      H2264   1.084       .  S
C2254      C2255   1.395       .  A
C2255      C2256   1.407       .  A
C2255      H2265   1.084       .  S
C2256      C2257   1.409       .  A
C2257      H2266   1.084       .  S
C2258      C2259   1.410       .  A
C2258      H2267   1.084       .  S
C2259      C2260   1.406       .  A
C2260      H2268   1.084       .  S
C2269      C2270   1.398       .  A
C2269      C2274   1.403       .  A
C2269      H2285   1.084       .  S
C2270      C2271   1.404       .  A
C2270      H2286   1.084       .  S
C2271      C2281   1.401       .  A
C2271      C2272   1.411   1_455  A
C2272      C2278   1.411       .  A
C2272      C2273   1.411       .  A
C2273      C2275   1.413       .  A
C2273      C2274   1.411   1_655  A
C2274      C2282   1.399       .  A
C2275      C2284   1.405       .  A
C2275      C2276   1.403       .  A
C2276      C2277   1.400       .  A
C2276      H2287   1.084       .  S
C2277      C2278   1.404       .  A
C2277      H2288   1.083       .  S
C2278      C2279   1.405       .  A
C2279      C2280   1.409       .  A
C2279      H2289   1.084       .  S
C2280      C2281   1.408   1_655  A
C2281      H2290   1.084       .  S
C2282      C2283   1.405   1_455  A
C2282      H2291   1.085       .  S
C2283      C2284   1.402       .  A
C2284      H2292   1.085       .  S
C2293      C2294   1.395       .  A
C2293      C2298   1.402       .  A
C2293      H2309   1.084       .  S
C2294      C2295   1.401       .  A
C2294      H2310   1.084       .  S
C2295      C2305   1.397       .  A
C2295      C2296   1.411       .  A
C2296      C2302   1.412       .  A
C2296      C2297   1.414       .  A
C2297      C2299   1.413       .  A
C2297      C2298   1.410       .  A
C2298      C2306   1.398       .  A
C2299      C2308   1.412       .  A
C2299      C2300   1.406       .  A
C2300      C2301   1.404       .  A
C2300      H2311   1.083       .  S
C2301      C2302   1.406       .  A
C2301      H2312   1.083       .  S
C2302      C2303   1.411       .  A
C2303      C2304   1.409       .  A
C2303      H2313   1.084       .  S
C2304      C2305   1.403       .  A
C2305      H2314   1.085       .  S
C2306      C2307   1.407       .  A
C2306      H2315   1.084       .  S
C2307      C2308   1.410       .  A
C2308      H2316   1.084       .  S
C2317      C2318   1.396       .  A
C2317      C2322   1.403       .  A
C2317      H2333   1.084       .  S
C2318      C2319   1.402       .  A
C2318      H2334   1.083       .  S
C2319      C2329   1.398       .  A
C2319      C2320   1.412       .  A
C2320      C2326   1.412       .  A
C2320      C2321   1.410       .  A
C2321      C2323   1.412       .  A
C2321      C2322   1.410       .  A
C2322      C2330   1.397       .  A
C2323      C2332   1.405       .  A
C2323      C2324   1.404       .  A
C2324      C2325   1.400       .  A
C2324      H2335   1.083       .  S
C2325      C2326   1.404       .  A
C2325      H2336   1.084       .  S
C2326      C2327   1.403       .  A
C2327      C2328   1.406       .  A
C2327      H2337   1.084       .  S
C2328      C2329   1.404       .  A
C2329      H2338   1.085       .  S
C2330      C2331   1.407       .  A
C2330      H2339   1.084       .  S
C2331      C2332   1.408       .  A
C2332      H2340   1.084       .  S
C2341      C2342   1.399       .  A
C2341      C2346   1.404       .  A
C2341      H2357   1.084       .  S
C2342      C2343   1.403       .  A
C2342      H2358   1.084       .  S
C2343      C2353   1.402       .  A
C2343      C2344   1.411       .  A
C2344      C2350   1.412       .  A
C2344      C2345   1.411       .  A
C2345      C2347   1.411       .  A
C2345      C2346   1.411       .  A
C2346      C2354   1.402       .  A
C2347      C2356   1.402       .  A
C2347      C2348   1.403       .  A
C2348      C2349   1.399       .  A
C2348      H2359   1.084   1_545  S
C2349      C2350   1.403       .  A
C2349      H2360   1.083   1_545  S
C2350      C2351   1.404       .  A
C2351      C2352   1.405       .  A
C2351      H2361   1.084       .  S
C2352      C2353   1.406       .  A
C2353      H2362   1.084       .  S
C2354      C2355   1.408       .  A
C2354      H2363   1.084       .  S
C2355      C2356   1.406       .  A
C2356      H2364   1.084       .  S
C2365      C2366   1.403       .  A
C2365      C2370   1.406       .  A
C2365      H2381   1.083       .  S
C2366      C2367   1.405       .  A
C2366      H2382   1.083       .  S
C2367      C2377   1.410       .  A
C2367      C2368   1.412       .  A
C2368      C2374   1.409       .  A
C2368      C2369   1.413       .  A
C2369      C2371   1.412       .  A
C2369      C2370   1.411       .  A
C2370      C2378   1.408       .  A
C2371      C2380   1.401       .  A
C2371      C2372   1.402       .  A
C2372      C2373   1.397       .  A
C2372      H2383   1.084       .  S
C2373      C2374   1.403       .  A
C2373      H2384   1.084       .  S
C2374      C2375   1.398       .  A
C2375      C2376   1.409       .  A
C2375      H2385   1.084       .  S
C2376      C2377   1.411       .  A
C2377      H2386   1.083       .  S
C2378      C2379   1.409       .  A
C2378      H2387   1.084       .  S
C2379      C2380   1.404       .  A
C2380      H2388   1.085       .  S
C2389      C2390   1.392       .  A
C2389      C2394   1.402       .  A
C2389      H2405   1.084       .  S
C2390      C2391   1.401       .  A
C2390      H2406   1.084       .  S
C2391      C2401   1.393       .  A
C2391      C2392   1.410       .  A
C2392      C2398   1.411       .  A
C2392      C2393   1.412       .  A
C2393      C2395   1.414       .  A
C2393      C2394   1.407       .  A
C2394      C2402   1.391       .  A
C2395      C2404   1.415       .  A
C2395      C2396   1.405       .  A
C2396      C2397   1.405       .  A
C2396      H2407   1.083       .  S
C2397      C2398   1.406       .  A
C2397      H2408   1.083       .  S
C2398      C2399   1.412       .  A
C2399      C2400   1.410       .  A
C2399      H2409   1.084       .  S
C2400      C2401   1.406       .  A
C2401      H2410   1.085       .  S
C2402      C2403   1.411       .  A
C2402      H2411   1.083       .  S
C2403      C2404   1.409       .  A
C2404      H2412   1.084       .  S
C2413      C2414   1.398       .  A
C2413      C2418   1.403       .  A
C2413      H2429   1.084       .  S
C2414      C2415   1.403       .  A
C2414      H2430   1.084       .  S
C2415      C2425   1.402       .  A
C2415      C2416   1.413       .  A
C2416      C2422   1.411   1_554  A
C2416      C2417   1.411       .  A
C2417      C2419   1.413   1_554  A
C2417      C2418   1.410       .  A
C2418      C2426   1.400       .  A
C2419      C2428   1.405       .  A
C2419      C2420   1.404       .  A
C2420      C2421   1.400       .  A
C2420      H2431   1.084       .  S
C2421      C2422   1.404       .  A
C2421      H2432   1.084       .  S
C2422      C2423   1.403       .  A
C2423      C2424   1.407   1_556  A
C2423      H2433   1.084       .  S
C2424      C2425   1.404       .  A
C2425      H2434   1.084       .  S
C2426      C2427   1.407       .  A
C2426      H2435   1.085       .  S
C2427      C2428   1.406   1_554  A
C2428      H2436   1.084       .  S
C2437      C2438   1.401       .  A
C2437      C2442   1.404       .  A
C2437      H2453   1.083       .  S
C2438      C2439   1.404       .  A
C2438      H2454   1.083       .  S
C2439      C2449   1.408       .  A
C2439      C2440   1.411       .  A
C2440      C2446   1.411       .  A
C2440      C2441   1.417       .  A
C2441      C2443   1.411       .  A
C2441      C2442   1.413       .  A
C2442      C2450   1.409       .  A
C2443      C2452   1.407       .  A
C2443      C2444   1.405       .  A
C2444      C2445   1.401       .  A
C2444      H2455   1.084       .  S
C2445      C2446   1.405       .  A
C2445      H2456   1.084       .  S
C2446      C2447   1.407       .  A
C2447      C2448   1.412       .  A
C2447      H2457   1.084       .  S
C2448      C2449   1.409       .  A
C2449      H2458   1.084       .  S
C2450      C2451   1.406       .  A
C2450      H2459   1.084       .  S
C2451      C2452   1.409       .  A
C2452      H2460   1.085       .  S
C2461      C2462   1.399       .  A
C2461      C2466   1.403       .  A
C2461      H2477   1.084       .  S
C2462      C2463   1.404       .  A
C2462      H2478   1.084       .  S
C2463      C2473   1.403       .  A
C2463      C2464   1.409       .  A
C2464      C2470   1.413       .  A
C2464      C2465   1.418       .  A
C2465      C2467   1.411       .  A
C2465      C2466   1.411       .  A
C2466      C2474   1.405       .  A
C2467      C2476   1.412       .  A
C2467      C2468   1.406       .  A
C2468      C2469   1.405       .  A
C2468      H2479   1.083       .  S
C2469      C2470   1.406       .  A
C2469      H2480   1.083       .  S
C2470      C2471   1.415       .  A
C2471      C2472   1.411       .  A
C2471      H2481   1.084       .  S
C2472      C2473   1.411       .  A
C2473      H2482   1.084       .  S
C2474      C2475   1.410       .  A
C2474      H2483   1.084       .  S
C2475      C2476   1.411       .  A
C2476      H2484   1.084       .  S
C2485      C2486   1.400       .  A
C2485      C2490   1.404       .  A
C2485      H2501   1.084       .  S
C2486      C2487   1.404       .  A
C2486      H2502   1.084       .  S
C2487      C2497   1.405       .  A
C2487      C2488   1.412       .  A
C2488      C2494   1.412   1_554  A
C2488      C2489   1.414       .  A
C2489      C2491   1.411   1_554  A
C2489      C2490   1.412       .  A
C2490      C2498   1.406       .  A
C2491      C2500   1.404       .  A
C2491      C2492   1.404       .  A
C2492      C2493   1.400       .  A
C2492      H2503   1.084       .  S
C2493      C2494   1.404       .  A
C2493      H2504   1.083       .  S
C2494      C2495   1.405       .  A
C2495      C2496   1.407   1_556  A
C2495      H2505   1.084       .  S
C2496      C2497   1.407       .  A
C2497      H2506   1.084       .  S
C2498      C2499   1.409       .  A
C2498      H2507   1.084       .  S
C2499      C2500   1.408   1_554  A
C2500      H2508   1.084       .  S
C2509      C2510   1.404       .  A
C2509      C2514   1.405       .  A
C2509      H2525   1.083       .  S
C2510      C2511   1.405       .  A
C2510      H2526   1.083       .  S
C2511      C2521   1.410       .  A
C2511      C2512   1.411       .  A
C2512      C2518   1.411       .  A
C2512      C2513   1.414       .  A
C2513      C2515   1.410       .  A
C2513      C2514   1.412       .  A
C2514      C2522   1.411       .  A
C2515      C2524   1.399       .  A
C2515      C2516   1.402       .  A
C2516      C2517   1.396       .  A
C2516      H2527   1.084       .  S
C2517      C2518   1.401       .  A
C2517      H2528   1.079       .  S
C2518      C2519   1.402       .  A
C2519      C2520   1.406       .  A
C2519      H2529   1.084       .  S
C2520      C2521   1.410       .  A
C2521      H2530   1.084       .  S
C2522      C2523   1.411       .  A
C2522      H2531   1.084       .  S
C2523      C2524   1.408       .  A
C2524      H2532   1.084       .  S
C2533      C2534   1.395       .  A
C2533      C2538   1.401       .  A
C2533      H2549   1.084       .  S
C2534      C2535   1.402       .  A
C2534      H2550   1.084       .  S
C2535      C2545   1.394       .  A
C2535      C2536   1.409       .  A
C2536      C2542   1.415       .  A
C2536      C2537   1.414       .  A
C2537      C2539   1.412       .  A
C2537      C2538   1.413       .  A
C2538      C2546   1.400       .  A
C2539      C2548   1.412       .  A
C2539      C2540   1.407       .  A
C2540      C2541   1.405       .  A
C2540      H2551   1.083       .  S
C2541      C2542   1.405       .  A
C2541      H2552   1.083       .  S
C2542      C2543   1.415       .  A
C2543      C2544   1.408       .  A
C2543      H2553   1.084       .  S
C2544      C2545   1.406       .  A
C2545      H2554   1.085       .  S
C2546      C2547   1.402       .  A
C2546      H2555   1.085       .  S
C2547      C2548   1.409       .  A
C2548      H2556   1.084       .  S
C2557      C2558   1.401       .  A
C2557      C2562   1.404       .  A
C2557      H2573   1.083       .  S
C2558      C2559   1.404       .  A
C2558      H2574   1.083       .  S
C2559      C2569   1.408       .  A
C2559      C2560   1.413   1_556  A
C2560      C2566   1.411       .  A
C2560      C2561   1.415   1_554  A
C2561      C2563   1.412   1_556  A
C2561      C2562   1.412       .  A
C2562      C2570   1.407       .  A
C2563      C2572   1.405       .  A
C2563      C2564   1.404       .  A
C2564      C2565   1.400       .  A
C2564      H2575   1.084       .  S
C2565      C2566   1.404       .  A
C2565      H2576   1.084       .  S
C2566      C2567   1.404       .  A
C2567      C2568   1.409       .  A
C2567      H2577   1.085       .  S
C2568      C2569   1.407   1_554  A
C2569      H2578   1.084       .  S
C2570      C2571   1.406       .  A
C2570      H2579   1.084       .  S
C2571      C2572   1.408   1_556  A
C2572      H2580   1.084       .  S
