geometry optimzed in LAMMPS
_audit_creation_date              2020-12-01 
_audit_creation_method            'lammps2cif' 
_symmetry_space_group_name_H-M    'P1' 
_symmetry_Int_Tables_number       1 
_symmetry_cell_setting            triclinic 
loop_ 
_symmetry_equiv_pos_as_xyz 
  x,y,z 
_cell_length_a                    23.28336939 
_cell_length_b                    47.066511986649715 
_cell_length_c                    46.83113334178107 
_cell_angle_alpha                 89.63466364738032 
_cell_angle_beta                  89.23471845316185 
_cell_angle_gamma                 88.67412983342781 
loop_ 
_atom_site_label 
_atom_site_type_symbol 
_atom_site_fract_x 
_atom_site_fract_y 
_atom_site_fract_z 
_atom_site_charge 
N1          N  0.07305666  0.03451125  0.05571157    -0.05100
N2          N  0.10865694  0.04186535  0.07604728    -0.57200
N3          N  0.94025912  0.05524132  0.03738273    -0.04800
N4          N  0.90388354  0.07636474  0.04302099    -0.59300
N5          N  0.94029478  0.03636966  0.05822903    -0.04400
N6          N  0.90361310  0.04467698  0.07864151    -0.57200
N7          N  0.07159905  0.05393063  0.03538248    -0.04000
N8          N  0.10545020  0.07502676  0.04179559    -0.59700
C9          C  0.12924313  0.06701179  0.06689778     0.97100
C10         C  0.88021014  0.06943755  0.06848955     0.96900
N11         N  0.91572556  0.03710289  0.44903020    -0.05300
N12         N  0.87621209  0.04510238  0.43028623    -0.57800
N13         N  0.05142612  0.05439120  0.46521565    -0.03400
N14         N  0.09233751  0.07268325  0.46009722    -0.59000
N15         N  0.04899632  0.03556620  0.44462509    -0.05300
N16         N  0.08891618  0.04093301  0.42485154    -0.58000
N17         N  0.92052868  0.05676135  0.46860912    -0.03000
N18         N  0.88490167  0.07832741  0.46371671    -0.59100
Mn19       Mn  0.00408231  0.05435472  0.00266934     1.18400
C20         C  0.85677513  0.07070925  0.44011427     0.99200
C21         C  0.11518073  0.06437976  0.43481697     0.99800
N22         N  0.94439176  0.46413148  0.05330268    -0.05300
N23         N  0.90465071  0.45917197  0.07306111    -0.61600
N24         N  0.07558478  0.44482330  0.03100566    -0.04100
N25         N  0.11189125  0.42424321  0.03867879    -0.62300
N26         N  0.07498435  0.46529927  0.05016063    -0.04800
N27         N  0.11168554  0.45924514  0.07069605    -0.61900
N28         N  0.94518081  0.44406745  0.03377772    -0.03700
N29         N  0.90558729  0.42531876  0.03963626    -0.62600
Mn30       Mn  0.00660647  0.49854829  0.05157349     1.10700
C31         C  0.88108448  0.43486035  0.06416634     1.00400
C32         C  0.13487330  0.43382490  0.06308863     1.00500
N33         N  0.02135525  0.46723786  0.43903661    -0.04800
N34         N  0.05528834  0.46177815  0.41708908    -0.60200
N35         N  0.89528846  0.44803934  0.46382552    -0.04100
N36         N  0.86266308  0.42628442  0.45817303    -0.56900
N37         N  0.89069500  0.46758042  0.44363630    -0.05500
N38         N  0.85450538  0.45919679  0.42389517    -0.59800
N39         N  0.02623120  0.44705178  0.45852957    -0.04400
N40         N  0.06384099  0.42712328  0.44968032    -0.57000
Mn41       Mn  0.98130019  0.00203555  0.44688835     1.20200
Mn42       Mn  0.96441051  0.44781344  0.49553361     1.10100
Cl43       Cl  0.00358924  0.00037324  0.00360275    -0.84900
C44         C  0.08178725  0.43690622  0.42370830     0.97400
C45         C  0.83665627  0.43355342  0.43351361     0.97200
C46         C  0.79786813  0.36646647  0.39186603     0.87500
C47         C  0.73461198  0.36855121  0.40052410    -0.52700
C48         C  0.71331472  0.39579856  0.40277885     0.10500
C49         C  0.75784892  0.41872309  0.39557702     0.21400
C50         C  0.80196064  0.38344021  0.36349680    -0.53400
C51         C  0.78097122  0.41085473  0.36565459     0.10600
C52         C  0.82810752  0.38495143  0.41392661    -0.53000
C53         C  0.80820674  0.41236237  0.41550648     0.11100
H54         H  0.71022114  0.35000574  0.40655762     0.15600
H55         H  0.74066991  0.44088288  0.39728263     0.01400
H56         H  0.82118789  0.37530653  0.34390836     0.15900
H57         H  0.86293494  0.37708900  0.42719471     0.15700
C58         C  0.74718841  0.39230131  0.07349706     0.87500
C59         C  0.78683789  0.41433147  0.06038181    -0.52700
C60         C  0.83104392  0.42140171  0.07725813     0.10500
C61         C  0.83108082  0.40608347  0.10643066     0.21400
C62         C  0.78667942  0.36707921  0.08138224    -0.53400
C63         C  0.83057614  0.37443648  0.09868439     0.10600
C64         C  0.72682912  0.40481876  0.10198869    -0.53000
C65         C  0.77044636  0.41178505  0.11962781     0.11100
H66         H  0.78315163  0.42200737  0.03851295     0.15600
H67         H  0.86787946  0.41161301  0.11993451     0.01400
H68         H  0.78120172  0.34561894  0.07362811     0.15900
H69         H  0.68172593  0.40770892  0.10778025     0.15700
N70         N  0.58818886  0.37710145  0.99103474    -0.35600
N71         N  0.46350845  0.37888705  0.44404361    -0.56100
N72         N  0.37364443  0.37774183  0.48822252    -0.35600
N73         N  0.50582688  0.37209984  0.03763657    -0.56100
C74         C  0.58103505  0.37903558  0.46593718     0.28000
C75         C  0.61898822  0.36347382  0.01141016     0.28000
C76         C  0.34615473  0.36928841  0.46471456     0.28000
C77         C  0.38547459  0.38093164  0.02052260     0.28000
C78         C  0.50934460  0.38643620  0.42800977     0.36600
C79         C  0.41689080  0.38360304  0.42775674     0.36600
C80         C  0.55436365  0.37123037  0.05291999     0.36600
C81         C  0.46288331  0.37766035  0.05639652     0.36600
C82         C  0.63428177  0.36905089  0.47500473    -0.20900
C83         C  0.66648242  0.34985545  0.99922921    -0.20900
C84         C  0.29766915  0.35435112  0.47258755    -0.20800
C85         C  0.32936616  0.37626308  0.01266951    -0.20800
C86         C  0.49217079  0.39547727  0.40121232    -0.21900
C87         C  0.43330497  0.39396998  0.40110786    -0.21900
C88         C  0.54228295  0.37582928  0.08162235    -0.21900
C89         C  0.48386069  0.37975687  0.08385250    -0.21900
C90         C  0.56651382  0.38416077  0.43711150    -0.17300
C91         C  0.60900780  0.36585645  0.04104723    -0.17300
C92         C  0.40492259  0.37993580  0.04898435    -0.17300
C93         C  0.36024246  0.37772832  0.43659520    -0.17300
H94         H  0.67105580  0.36280746  0.46192908     0.15700
H95         H  0.69979312  0.33777486  0.01012649     0.15700
H96         H  0.26653877  0.34516804  0.45859603     0.15700
H97         H  0.29389639  0.36973167  0.02616677     0.15700
H98         H  0.51916297  0.40272733  0.38376298     0.13900
H99         H  0.40608455  0.39989525  0.38340133     0.13900
H100        H  0.57215600  0.37629101  0.09910963     0.13900
H101        H  0.45970561  0.38387052  0.10335868     0.13900
H102        H  0.50577734  0.39387193  0.48858175     0.27200
H103        H  0.40869279  0.39101076  0.48858262     0.27200
C104        C  0.80040949  0.13677490  0.39989583     0.87500
C105        C  0.79107787  0.11922844  0.37285630    -0.52700
C106        C  0.77217274  0.09234226  0.37848047     0.10500
C107        C  0.76374663  0.08561942  0.41036847     0.21400
C108        C  0.74286079  0.13648797  0.41568827    -0.53400
C109        C  0.72370372  0.10990454  0.42153959     0.10600
C110        C  0.84051010  0.11822109  0.41850493    -0.53000
C111        C  0.82205629  0.09138132  0.42350382     0.11100
H112        H  0.80109443  0.12688207  0.35148131     0.15600
H113        H  0.74832575  0.06384250  0.41467304     0.01400
H114        H  0.71980291  0.15569964  0.42240423     0.15900
H115        H  0.88024794  0.12541803  0.42707171     0.15700
N116        N  0.76308004  0.50378180  0.19886822    -0.35600
N117        N  0.75637441  0.04979559  0.25537996    -0.56100
N118        N  0.76582263  0.50224709  0.28543918    -0.35600
N119        N  0.77026496  0.45897808  0.24127568    -0.56100
C120        C  0.75526480  0.03076969  0.19697061     0.28000
C121        C  0.75594129  0.48043218  0.18282335     0.28000
C122        C  0.74016788  0.02594648  0.31202046     0.28000
C123        C  0.75024201  0.47842372  0.29971648     0.28000
C124        C  0.77123052  0.06679631  0.23336494     0.36600
C125        C  0.76343710  0.06506455  0.27926002     0.36600
C126        C  0.78826526  0.44423480  0.21801839     0.36600
C127        C  0.78343938  0.44279271  0.26430170     0.36600
C128        C  0.72883992  0.02284343  0.17204970    -0.20900
C129        C  0.73008975  0.48828332  0.15726876    -0.20900
C130        C  0.70829373  0.01514817  0.33461216    -0.20800
C131        C  0.71651524  0.48600705  0.32324642    -0.20800
C132        C  0.78758314  0.09308032  0.24320015    -0.21900
C133        C  0.78242935  0.09201344  0.27242739    -0.21900
C134        C  0.81244221  0.41832880  0.22621357    -0.21900
C135        C  0.80924681  0.41736200  0.25561075    -0.21900
C136        C  0.76695256  0.05888623  0.20464541    -0.17300
C137        C  0.77851755  0.45311736  0.18961336    -0.17300
C138        C  0.76884676  0.45029508  0.29272664    -0.17300
C139        C  0.74997590  0.05506207  0.30682058    -0.17300
H140        H  0.70893123  0.03666774  0.15628756     0.15700
H141        H  0.71984662  0.47510150  0.13934879     0.15700
H142        H  0.68391326  0.02702691  0.35055408     0.15700
H143        H  0.69645998  0.47196720  0.33859722     0.15700
H144        H  0.80169200  0.11114248  0.23078705     0.13900
H145        H  0.79199354  0.10906768  0.28687332     0.13900
H146        H  0.82950718  0.40168206  0.21246152     0.13900
H147        H  0.82409878  0.39991231  0.26895567     0.13900
H148        H  0.78605935  0.50460884  0.21774220     0.27200
H149        H  0.79341772  0.50325669  0.26779626     0.27200
C150        C  0.84880887  0.13651826  0.11193957     0.87500
C151        C  0.87944107  0.11640776  0.09086054    -0.52700
C152        C  0.85238454  0.09151195  0.08663569     0.10500
C153        C  0.79533876  0.08924501  0.10354102     0.21400
C154        C  0.78846915  0.14111250  0.09986947    -0.53400
C155        C  0.75964104  0.11642276  0.09592804     0.10600
C156        C  0.84027365  0.11882216  0.13912636    -0.53000
C157        C  0.81229036  0.09418362  0.13456237     0.11100
H158        H  0.92055829  0.12101618  0.08079415     0.15600
H159        H  0.77302522  0.06898632  0.10001369     0.01400
H160        H  0.77012867  0.16198651  0.09498442     0.15900
H161        H  0.85606245  0.12483995  0.15990900     0.15700
N162        N  0.42735662  0.10549131  0.01167781    -0.35600
N163        N  0.51064735  0.10017444  0.05767567    -0.56100
N164        N  0.60037680  0.10319935  0.01459406    -0.35600
N165        N  0.50611469  0.10000488  0.47645579    -0.56100
C166        C  0.39324569  0.11184219  0.03456113     0.28000
C167        C  0.38910017  0.12055496  0.49123612     0.28000
C168        C  0.63101503  0.09354256  0.03710368     0.28000
C169        C  0.61822511  0.08259146  0.50347755     0.28000
C170        C  0.46274294  0.10223173  0.07418138     0.36600
C171        C  0.55601512  0.09769826  0.07535445     0.36600
C172        C  0.46350659  0.10254024  0.45719837     0.36600
C173        C  0.55363785  0.09164338  0.46180306     0.36600
C174        C  0.34150138  0.12364114  0.02513216    -0.20900
C175        C  0.34011388  0.13704665  0.49668657    -0.20900
C176        C  0.68495504  0.08396428  0.02782665    -0.20800
C177        C  0.66418188  0.06732258  0.51481878    -0.20800
C178        C  0.47766755  0.10049434  0.10273636    -0.21900
C179        C  0.53685750  0.09783512  0.10346792    -0.21900
C180        C  0.48378897  0.09550348  0.43020003    -0.21900
C181        C  0.54108171  0.08880228  0.43305990    -0.21900
C182        C  0.40638334  0.10730128  0.06384459    -0.17300
C183        C  0.40692469  0.11177893  0.46365436    -0.17300
C184        C  0.60802664  0.08561277  0.47384410    -0.17300
C185        C  0.61418572  0.09542092  0.06615253    -0.17300
H186        H  0.30557997  0.13156126  0.03789373     0.15700
H187        H  0.31093607  0.14642315  0.48128855     0.15700
H188        H  0.71941618  0.07511709  0.04065910     0.15700
H189        H  0.69721059  0.05532332  0.50338086     0.15700
H190        H  0.44906522  0.10164930  0.12112103     0.13900
H191        H  0.56273847  0.09619689  0.12245505     0.13900
H192        H  0.46003502  0.09539316  0.41049704     0.13900
H193        H  0.56988468  0.08194695  0.41599487     0.13900
H194        H  0.46745469  0.09538625  0.01198881     0.27200
H195        H  0.56043235  0.11339102  0.01523916     0.27200
C196        C  0.18090822  0.42213113  0.35955972     0.87500
C197        C  0.15737045  0.39269980  0.35409929    -0.52700
C198        C  0.14591769  0.37778399  0.37854268     0.10500
C199        C  0.15630371  0.39446987  0.40640468     0.21400
C200        C  0.13581900  0.43699197  0.37838348    -0.53400
C201        C  0.12271146  0.42305465  0.40315855     0.10600
C202        C  0.23250020  0.41711076  0.37888308    -0.53000
C203        C  0.21953497  0.40246466  0.40322194     0.11100
H204        H  0.15185021  0.38410195  0.33286120     0.15600
H205        H  0.14610460  0.38271401  0.42640480     0.01400
H206        H  0.11676813  0.45751880  0.37270880     0.15900
H207        H  0.27541151  0.42439861  0.37380159     0.15700
N208        N  0.99545187  0.29244248  0.38908177    -0.35600
N209        N  0.09006047  0.25185887  0.40075583    -0.56100
N210        N  0.00972475  0.20715133  0.39173650    -0.35600
N211        N  0.91319890  0.24819140  0.38459256    -0.56100
C212        C  0.03665356  0.30956397  0.39876858     0.28000
C213        C  0.94560724  0.30791274  0.38918229     0.28000
C214        C  0.05404916  0.19381444  0.40519615     0.28000
C215        C  0.96238296  0.19205571  0.39787285     0.28000
C216        C  0.12063231  0.27574738  0.39781033     0.36600
C217        C  0.12797443  0.22968400  0.39925651     0.36600
C218        C  0.87939325  0.26997917  0.37527634     0.36600
C219        C  0.88620401  0.22393737  0.37847846     0.36600
C220        C  0.01252525  0.33588293  0.40567858    -0.20900
C221        C  0.95587291  0.33507422  0.39886576    -0.20900
C222        C  0.03439978  0.17072098  0.42055729    -0.20800
C223        C  0.97680555  0.16954317  0.41575147    -0.20800
C224        C  0.17858278  0.26881552  0.39482032    -0.21900
C225        C  0.18325421  0.23951993  0.39570715    -0.21900
C226        C  0.82982119  0.25955708  0.36358370    -0.21900
C227        C  0.83426169  0.23026456  0.36549120    -0.21900
C228        C  0.09651282  0.30356449  0.39844897    -0.17300
C229        C  0.89204988  0.29897940  0.37885745    -0.17300
C230        C  0.90747465  0.19657330  0.38607108    -0.17300
C231        C  0.11239258  0.20100053  0.40264978    -0.17300
H232        H  0.03400871  0.35434677  0.41360171     0.15700
H233        H  0.92669290  0.35304999  0.39995359     0.15700
H234        H  0.05897497  0.15619123  0.43390321     0.15700
H235        H  0.94882106  0.15408020  0.42487538     0.15700
H236        H  0.21370332  0.28331976  0.39224712     0.13900
H237        H  0.22269502  0.22699657  0.39400596     0.13900
H238        H  0.79419597  0.27175504  0.35479138     0.13900
H239        H  0.80273020  0.21543133  0.35837826     0.13900
H240        H  0.00213347  0.27223694  0.38062894     0.27200
H241        H  0.01238233  0.22408613  0.37740381     0.27200
C242        C  0.26330475  0.09711713  0.42622456     0.87500
C243        C  0.23462702  0.12644314  0.42150250    -0.52700
C244        C  0.18656530  0.12581653  0.40496118     0.10500
C245        C  0.17150084  0.09545363  0.39514877     0.21400
C246        C  0.21558583  0.07873001  0.43887452    -0.53400
C247        C  0.16764376  0.07748808  0.42279065     0.10600
C248        C  0.27480343  0.08535117  0.39615919    -0.53000
C249        C  0.22655894  0.08455660  0.37972074     0.11100
H250        H  0.25127799  0.14566395  0.43058714     0.15600
H251        H  0.13222305  0.09468557  0.38199030     0.01400
H252        H  0.21857703  0.06820756  0.45955291     0.15900
H253        H  0.31678095  0.07754605  0.38900372     0.15700
N254        N  0.27576182  0.00192805  0.29587784    -0.35600
N255        N  0.27058515  0.46310114  0.24302137    -0.56100
N256        N  0.26815196  0.00731870  0.21036099    -0.35600
N257        N  0.26970556  0.04909082  0.25578518    -0.56100
C258        C  0.26517426  0.48099123  0.30196823     0.28000
C259        C  0.28789746  0.02390993  0.31306928     0.28000
C260        C  0.28510552  0.48879113  0.18686705     0.28000
C261        C  0.27699308  0.03194797  0.19632280     0.28000
C262        C  0.25422849  0.44556027  0.26427292     0.36600
C263        C  0.26573620  0.44833843  0.21872213     0.36600
C264        C  0.25943100  0.06335339  0.28033959     0.36600
C265        C  0.25069130  0.06599774  0.23430852     0.36600
C266        C  0.28643591  0.48790077  0.32843863    -0.20900
C267        C  0.31130398  0.01357798  0.33830597    -0.20900
C268        C  0.31273210  0.50049629  0.16336836    -0.20800
C269        C  0.30391772  0.02651708  0.17023755    -0.20800
C270        C  0.23988734  0.41930979  0.25366280    -0.21900
C271        C  0.24743391  0.42101429  0.22458560    -0.21900
C272        C  0.23508929  0.08984534  0.27447307    -0.21900
C273        C  0.22902986  0.09144220  0.24523372    -0.21900
C274        C  0.25365694  0.45319529  0.29306746    -0.17300
C275        C  0.27307947  0.05273164  0.30775740    -0.17300
C276        C  0.25446689  0.05860515  0.20511511    -0.17300
C277        C  0.27790681  0.45959011  0.19154916    -0.17300
H278        H  0.30054203  0.47336385  0.34506204     0.15700
H279        H  0.32428641  0.02573409  0.35657442     0.15700
H280        H  0.33613265  0.48927658  0.14661711     0.15700
H281        H  0.31558735  0.04185202  0.15395889     0.15700
H282        H  0.22541343  0.40096893  0.26555922     0.13900
H283        H  0.23940697  0.40421067  0.20960615     0.13900
H284        H  0.22231992  0.10609954  0.28967756     0.13900
H285        H  0.21090892  0.10929370  0.23349242     0.13900
H286        H  0.25366546  0.00306302  0.27681923     0.27200
H287        H  0.24444804  0.00499854  0.22917874     0.27200
C288        C  0.17146285  0.13233291  0.10959773     0.87500
C289        C  0.17130195  0.11542892  0.13771582    -0.52700
C290        C  0.19280897  0.08838265  0.13502472     0.10500
C291        C  0.21065750  0.08026054  0.10433929     0.21400
C292        C  0.23415617  0.13040709  0.09880337    -0.53400
C293        C  0.25474707  0.10290164  0.09605551     0.10600
C294        C  0.13809685  0.11433397  0.08853641    -0.53000
C295        C  0.15812366  0.08715247  0.08575123     0.11100
H296        H  0.15784777  0.12438379  0.15810973     0.15600
H297        H  0.22735785  0.05805616  0.10214426     0.01400
H298        H  0.25881054  0.14887746  0.09287688     0.15900
H299        H  0.10077924  0.12231395  0.07702026     0.15700
C300        C  0.18943081  0.37685624  0.11558062     0.87500
C301        C  0.14861236  0.39116283  0.09395934    -0.52700
C302        C  0.16872053  0.41592909  0.08278426     0.10500
C303        C  0.22725447  0.42427977  0.09435128     0.21400
C304        C  0.24678201  0.37330350  0.09965811    -0.53400
C305        C  0.26678253  0.39835933  0.08878192     0.10600
C306        C  0.19990261  0.39951774  0.13794100    -0.53000
C307        C  0.22034440  0.42414772  0.12679306     0.11100
H308        H  0.10712566  0.38278297  0.08846816     0.15600
H309        H  0.24359585  0.44454197  0.08544156     0.01400
H310        H  0.26863335  0.35285337  0.09703253     0.15900
H311        H  0.19359289  0.39614550  0.16072962     0.15700
N312        N  0.01218570  0.21447362  0.13926429    -0.35600
N313        N  0.92023565  0.25768045  0.13869206    -0.56100
N314        N  0.00875030  0.29916046  0.12935777    -0.35600
N315        N  0.10088832  0.25623307  0.13468585    -0.56100
C316        C  0.96595255  0.19945947  0.14744361     0.28000
C317        C  0.05954139  0.19876748  0.14598903     0.28000
C318        C  0.96216534  0.31547797  0.13622491     0.28000
C319        C  0.05554721  0.31481396  0.13392493     0.28000
C320        C  0.88930932  0.23429612  0.13416228     0.36600
C321        C  0.88782136  0.27993282  0.12943552     0.36600
C322        C  0.13350051  0.23258867  0.13007958     0.36600
C323        C  0.13086900  0.27813424  0.12400816     0.36600
C324        C  0.98402318  0.17408211  0.15998426    -0.20900
C325        C  0.04315331  0.17364434  0.15906484    -0.20900
C326        C  0.97937363  0.34153512  0.14613999    -0.20800
C327        C  0.03828049  0.34134754  0.14425712    -0.20800
C328        C  0.83661414  0.24168059  0.12251507    -0.21900
C329        C  0.83568514  0.27070557  0.11943844    -0.21900
C330        C  0.18528024  0.23952619  0.11721911    -0.21900
C331        C  0.18357735  0.26853761  0.11330329    -0.21900
C332        C  0.90841048  0.20642544  0.14037307    -0.17300
C333        C  0.11646028  0.20495373  0.13734862    -0.17300
C334        C  0.11188476  0.30669443  0.12519734    -0.17300
C335        C  0.90498222  0.30837486  0.13039767    -0.17300
H336        H  0.95728758  0.15719040  0.16795657     0.15700
H337        H  0.07089929  0.15636615  0.16625971     0.15700
H338        H  0.95220333  0.35925617  0.15297720     0.15700
H339        H  0.06441284  0.35917222  0.14948059     0.15700
H340        H  0.80284541  0.22761102  0.11639248     0.13900
H341        H  0.80101502  0.28336254  0.11037090     0.13900
H342        H  0.22021142  0.22518727  0.11104011     0.13900
H343        H  0.21723012  0.28110343  0.10377522     0.13900
H344        H  0.01119217  0.23295365  0.12702679     0.27200
H345        H  0.00848393  0.27958491  0.11914671     0.27200
C346        C  0.16729210  0.35007304  0.12882578    -0.15400
C347        C  0.14897349  0.32879693  0.11290937    -0.30600
H348        H  0.16138867  0.34899735  0.15187808     0.13600
H349        H  0.15589011  0.32909547  0.08991667     0.14200
C350        C  0.14436498  0.16169975  0.11208674    -0.15400
C351        C  0.15702824  0.18056313  0.13230974    -0.30600
H352        H  0.10768152  0.16666676  0.09862462     0.13600
H353        H  0.19330977  0.17700750  0.14631696     0.14200
C354        C  0.24025651  0.44691469  0.14498798    -0.15400
C355        C  0.27485156  0.44048892  0.16688293    -0.30600
H356        H  0.22190622  0.46813965  0.14209208     0.13600
H357        H  0.29200514  0.41891241  0.16913136     0.14200
C358        C  0.20575344  0.06964927  0.15952317    -0.15400
C359        C  0.23333001  0.07887938  0.18278609    -0.30600
H360        H  0.19833022  0.04714601  0.15681026     0.13600
H361        H  0.24109978  0.10139608  0.18520582     0.14200
C362        C  0.27089880  0.07201396  0.33271946    -0.15400
C363        C  0.22553065  0.07195935  0.35078623    -0.30600
H364        H  0.30950784  0.08323791  0.33802642     0.13600
H365        H  0.18683715  0.06120413  0.34464943     0.14200
C366        C  0.15749297  0.17801008  0.40678990    -0.15400
C367        C  0.15024496  0.15118549  0.39721123    -0.30600
H368        H  0.19535706  0.18312808  0.41874977     0.13600
H369        H  0.11331412  0.14704997  0.38406990     0.14200
C370        C  0.19455024  0.43935735  0.33350770    -0.15400
C371        C  0.23666034  0.43221882  0.31499511    -0.30600
H372        H  0.17196266  0.45967500  0.33072242     0.13600
H373        H  0.25873571  0.41167486  0.31629695     0.14200
C374        C  0.13428613  0.32864095  0.39746404    -0.15400
C375        C  0.12539540  0.34846481  0.37707101    -0.30600
H376        H  0.16381714  0.33213833  0.41477815     0.13600
H377        H  0.09829904  0.34345907  0.35911928     0.14200
C378        C  0.31134104  0.09493678  0.08321238    -0.15400
C379        C  0.35793488  0.11123784  0.08469562    -0.30600
H380        H  0.31336942  0.07594766  0.07011860     0.13600
H381        H  0.35794762  0.12951002  0.09873186     0.14200
C382        C  0.36267501  0.11153537  0.44091249    -0.15400
C383        C  0.31436966  0.09709001  0.44572280    -0.30600
H384        H  0.36951496  0.12273507  0.42085439     0.13600
H385        H  0.31091544  0.08518870  0.46564954     0.14200
C386        C  0.88277507  0.16284579  0.11647270    -0.15400
C387        C  0.86853087  0.18281676  0.13574779    -0.30600
H388        H  0.92283858  0.16498563  0.10449894     0.13600
H389        H  0.82787433  0.18220012  0.14735923     0.14200
C390        C  0.66213228  0.09652282  0.08697730    -0.15400
C391        C  0.70133386  0.11701185  0.08355526    -0.30600
H392        H  0.66860798  0.07927005  0.10217200     0.13600
H393        H  0.69143682  0.13461888  0.06913705     0.14200
C394        C  0.77677500  0.08037130  0.18187402    -0.15400
C395        C  0.80217978  0.07322313  0.15697774    -0.30600
H396        H  0.76499588  0.10248699  0.18580551     0.13600
H397        H  0.81497071  0.05141992  0.15231895     0.14200
C398        C  0.82263668  0.16650527  0.39510046    -0.15400
C399        C  0.87345498  0.17052291  0.38208999    -0.30600
H400        H  0.80027319  0.18439466  0.40517744     0.13600
H401        H  0.89636955  0.15203419  0.37344194     0.19200
C402        C  0.67026337  0.10663437  0.43814897    -0.15400
C403        C  0.65837735  0.08377035  0.45413629    -0.30600
H404        H  0.64150622  0.12516560  0.43946154     0.13600
H405        H  0.68846077  0.06587448  0.45526426     0.14200
C406        C  0.74663760  0.07608704  0.33044711    -0.15400
C407        C  0.76693457  0.07025440  0.35654555    -0.30600
H408        H  0.73197263  0.09764647  0.32562458     0.13600
H409        H  0.78172323  0.04890099  0.36203829     0.14200
C410        C  0.36140249  0.38067188  0.07208536    -0.15400
C411        C  0.31991082  0.40082149  0.07199531    -0.30600
H412        H  0.36205735  0.36380321  0.08800043     0.13600
H413        H  0.32281735  0.41867579  0.05723862     0.14200
C414        C  0.31315219  0.38242228  0.41604840    -0.15400
C415        C  0.26291580  0.39463948  0.42417398    -0.30600
H416        H  0.32100952  0.37789888  0.39359064     0.13600
H417        H  0.25339000  0.39953799  0.44636639     0.14200
C418        C  0.75692412  0.42376841  0.14817964    -0.15400
C419        C  0.79614483  0.43418797  0.16566707    -0.30600
H420        H  0.71177615  0.42658681  0.15402461     0.13600
H421        H  0.84170399  0.43141847  0.16124914     0.14200
C422        C  0.87520569  0.35405440  0.10784029    -0.15400
C423        C  0.86185952  0.33114365  0.12355147    -0.30600
H424        H  0.91906490  0.35788519  0.10099612     0.13600
H425        H  0.81718262  0.32805910  0.12957611     0.14200
C426        C  0.69999695  0.38551587  0.05361474    -0.15400
C427        C  0.65918986  0.36689346  0.05992405    -0.30600
H428        H  0.69735648  0.39749618  0.03369937     0.13600
H429        H  0.65915343  0.35578607  0.08032967     0.14200
C430        C  0.65703969  0.40217486  0.41666130    -0.15400
C431        C  0.61331121  0.38407026  0.41530614    -0.30600
H432        H  0.65401659  0.42018170  0.43103872     0.13600
H433        H  0.61443543  0.36697346  0.39981846     0.14200
C434        C  0.78396313  0.43252868  0.34260827    -0.15400
C435        C  0.77040884  0.42743311  0.31527022    -0.30600
H436        H  0.79438915  0.45387420  0.34906416     0.13600
H437        H  0.76041214  0.40587803  0.30921854     0.14200
C438        C  0.82152829  0.33600739  0.39329593    -0.15400
C439        C  0.84849824  0.32174195  0.37196734    -0.30600
H440        H  0.82289295  0.32654282  0.41454095     0.13600
H441        H  0.84855047  0.33002104  0.35035120     0.14200
N442        N  0.05680017  0.03650519  0.55366170    -0.05100
N443        N  0.09185029  0.04468461  0.57395901    -0.57200
N444        N  0.92486504  0.05647871  0.53431279    -0.04800
N445        N  0.88528525  0.07650250  0.53833999    -0.59300
N446        N  0.92366716  0.03737247  0.55493087    -0.04400
N447        N  0.88240903  0.04421928  0.57356636    -0.57200
N448        N  0.05557087  0.05546227  0.53286777    -0.04000
N449        N  0.08901664  0.07683331  0.53878392    -0.59700
C450        C  0.11238993  0.06968987  0.56415076     0.97100
C451        C  0.85864462  0.06855695  0.56264335     0.96900
N452        N  0.93187354  0.03501352  0.95154185    -0.05300
N453        N  0.89516015  0.04324383  0.93165266    -0.57800
N454        N  0.06635909  0.05250154  0.96698819    -0.03400
N455        N  0.10612744  0.07107716  0.96058591    -0.59000
N456        N  0.06323546  0.03326861  0.94678787    -0.05300
N457        N  0.10110083  0.03853068  0.92613108    -0.58000
N458        N  0.93624327  0.05497004  0.97087227    -0.03000
N459        N  0.90311240  0.07710333  0.96449351    -0.59100
Mn460      Mn  0.98864164  0.05587098  0.50026029     1.18400
C461        C  0.87710833  0.06938494  0.94030182     0.99200
C462        C  0.12703641  0.06237312  0.93497648     0.99800
N463        N  0.90320767  0.47009928  0.55098346    -0.05300
N464        N  0.86499857  0.46521546  0.57148986    -0.61600
N465        N  0.03199537  0.44809393  0.52814563    -0.04100
N466        N  0.06478867  0.42610345  0.53569419    -0.62300
N467        N  0.03377856  0.46820662  0.54762903    -0.04800
N468        N  0.06874905  0.46030718  0.56840906    -0.61900
N469        N  0.90207885  0.45005911  0.53147137    -0.03700
N470        N  0.86277353  0.43135167  0.53817008    -0.62600
Mn471      Mn  0.96834125  0.50332137  0.54914542     1.10700
C472        C  0.84050680  0.44091385  0.56320034     1.00400
C473        C  0.08826630  0.43420706  0.56047770     1.00500
N474        N  0.06374791  0.46329009  0.94182944    -0.04800
N475        N  0.09751435  0.45835273  0.91971313    -0.60200
N476        N  0.93890344  0.44142230  0.96612546    -0.04100
N477        N  0.90547312  0.41987621  0.96062670    -0.56900
N478        N  0.93272363  0.46134271  0.94644715    -0.05500
N479        N  0.89458425  0.45371587  0.92738749    -0.59800
N480        N  0.07008330  0.44303525  0.96117350    -0.04400
N481        N  0.10831392  0.42354305  0.95194777    -0.57000
Mn482      Mn  0.99651405  0.00008570  0.94929366     1.20200
Mn483      Mn  0.00812966  0.44255518  0.99810726     1.10100
Cl484      Cl  0.98796379  0.00195729  0.50148122    -0.84900
C485        C  0.12529525  0.43370224  0.92596467     0.97400
C486        C  0.87732034  0.42794702  0.93668771     0.97200
C487        C  0.82989789  0.36309448  0.89416925     0.87500
C488        C  0.76704886  0.36637616  0.90342345    -0.52700
C489        C  0.74840218  0.39402985  0.90638611     0.10500
C490        C  0.79498101  0.41599737  0.89933197     0.21400
C491        C  0.83432270  0.38051821  0.86618504    -0.53400
C492        C  0.81573705  0.40814634  0.86892404     0.10600
C493        C  0.86271272  0.38018256  0.91636930    -0.53000
C494        C  0.84551417  0.40789759  0.91879032     0.11100
H495        H  0.74076538  0.34828489  0.90868655     0.15600
H496        H  0.77994007  0.43845972  0.90160149     0.01400
H497        H  0.85068598  0.37233694  0.84604541     0.15900
H498        H  0.89761719  0.37116724  0.92891664     0.15700
C499        C  0.69801708  0.40593746  0.57588622     0.87500
C500        C  0.74028889  0.42719800  0.56341246    -0.52700
C501        C  0.79089192  0.42796686  0.57731201     0.10500
C502        C  0.79467692  0.40744982  0.60304498     0.21400
C503        C  0.73118383  0.37738636  0.57615751    -0.53400
C504        C  0.78165456  0.37830058  0.59040406     0.10600
C505        C  0.69053253  0.41389070  0.60736705    -0.53000
C506        C  0.74108289  0.41436272  0.62198321     0.11100
H507        H  0.73274887  0.43908145  0.54377512     0.15600
H508        H  0.83654619  0.40777274  0.61403651     0.01400
H509        H  0.71665379  0.35833796  0.56575270     0.15900
H510        H  0.64891302  0.41853048  0.61724226     0.15700
N511        N  0.54662454  0.38452881  0.48887839    -0.35600
N512        N  0.49859297  0.39004909  0.95047177    -0.56100
N513        N  0.41647668  0.38904627  0.99741512    -0.35600
N514        N  0.45729219  0.37833704  0.53272465    -0.56100
C515        C  0.61582548  0.37234750  0.96590890     0.28000
C516        C  0.57754954  0.37822291  0.51240279     0.28000
C517        C  0.38050549  0.38985241  0.97492320     0.28000
C518        C  0.34254044  0.36881405  0.51098552     0.28000
C519        C  0.54460481  0.39439711  0.93328552     0.36600
C520        C  0.45244093  0.40100933  0.93682067     0.36600
C521        C  0.50150792  0.38423703  0.54973834     0.36600
C522        C  0.40946421  0.38095689  0.54910166     0.36600
C523        C  0.66440490  0.35535834  0.97044482    -0.20900
C524        C  0.63208110  0.36855966  0.50430153    -0.20900
C525        C  0.32577270  0.38259389  0.98424116    -0.20800
C526        C  0.29497383  0.35439904  0.50190284    -0.20800
C527        C  0.52774638  0.40778805  0.90826867    -0.21900
C528        C  0.46916293  0.41197346  0.91046576    -0.21900
C529        C  0.48190075  0.39028587  0.57717363    -0.21900
C530        C  0.42321178  0.38818467  0.57676084    -0.21900
C531        C  0.60078731  0.38472451  0.93941526    -0.17300
C532        C  0.55935922  0.38276227  0.54103352    -0.17300
C533        C  0.35422928  0.37497046  0.53963393    -0.17300
C534        C  0.39521153  0.39898192  0.94688808    -0.17300
H535        H  0.69573282  0.34805490  0.95476518     0.15700
H536        H  0.66686753  0.36192120  0.51808385     0.15700
H537        H  0.28618366  0.38242126  0.97257078     0.15700
H538        H  0.26162520  0.34511739  0.51504072     0.15700
H539        H  0.55467087  0.41355357  0.89022616     0.13900
H540        H  0.44203819  0.42153171  0.89427859     0.13900
H541        H  0.50721451  0.39537177  0.59559074     0.13900
H542        H  0.39413599  0.39123290  0.59476733     0.13900
H543        H  0.55346924  0.39091045  0.99446015     0.27200
H544        H  0.45857951  0.39569022  0.99753308     0.27200
C545        C  0.82933778  0.13465008  0.89657598     0.87500
C546        C  0.82863667  0.11682956  0.86924540    -0.52700
C547        C  0.80999835  0.08979275  0.87379753     0.10500
C548        C  0.79362456  0.08302751  0.90469813     0.21400
C549        C  0.76803775  0.13348733  0.90830635    -0.53400
C550        C  0.74948216  0.10637144  0.91282590     0.10600
C551        C  0.86500876  0.11692400  0.91796055    -0.53000
C552        C  0.84664024  0.08989146  0.92187531     0.11100
H553        H  0.84228627  0.12469592  0.84844596     0.15600
H554        H  0.77836488  0.06104981  0.90819817     0.01400
H555        H  0.74219117  0.15245614  0.91277859     0.15900
H556        H  0.90173507  0.12480286  0.92898161     0.15700
N557        N  0.77535149  0.49956441  0.70202280    -0.35600
N558        N  0.78930945  0.04689380  0.75189063    -0.56100
N559        N  0.78174864  0.49645621  0.78862534    -0.35600
N560        N  0.78392153  0.45397950  0.74404295    -0.56100
C561        C  0.78160848  0.02717766  0.69382470     0.28000
C562        C  0.76027225  0.47656981  0.68699009     0.28000
C563        C  0.76757061  0.02561186  0.80867733     0.28000
C564        C  0.76970252  0.47227437  0.80296291     0.28000
C565        C  0.80559380  0.06282951  0.72944367     0.36600
C566        C  0.79994711  0.06227571  0.77519735     0.36600
C567        C  0.79695659  0.43936260  0.71992789     0.36600
C568        C  0.80115322  0.43762385  0.76634250     0.36600
C569        C  0.75539739  0.01980926  0.66869775    -0.20900
C570        C  0.72663924  0.48529905  0.66405926    -0.20900
C571        C  0.73231341  0.01733940  0.83114662    -0.20800
C572        C  0.73758690  0.47884478  0.82735317    -0.20800
C573        C  0.82662435  0.08854709  0.73834383    -0.21900
C574        C  0.82319774  0.08817854  0.76761856    -0.21900
C575        C  0.82230294  0.41335277  0.72684171    -0.21900
C576        C  0.82514480  0.41226440  0.75630152    -0.21900
C577        C  0.79673438  0.05501185  0.70119695    -0.17300
C578        C  0.78081464  0.44853486  0.69227544    -0.17300
C579        C  0.79107472  0.44486671  0.79539739    -0.17300
C580        C  0.78419892  0.05368375  0.80277328    -0.17300
H581        H  0.73964540  0.03373197  0.65206768     0.15700
H582        H  0.70791003  0.47269523  0.64761222     0.15700
H583        H  0.70966302  0.03096301  0.84627903     0.15700
H584        H  0.72074220  0.46422016  0.84312040     0.15700
H585        H  0.84209641  0.10579671  0.72515266     0.13900
H586        H  0.83568705  0.10512768  0.78158084     0.13900
H587        H  0.83622549  0.39674634  0.71225957     0.13900
H588        H  0.84214359  0.39465610  0.76879362     0.13900
H589        H  0.80384127  0.49975023  0.71900367     0.27200
H590        H  0.80807214  0.49813066  0.77050483     0.27200
C591        C  0.78857766  0.13224900  0.60048462     0.87500
C592        C  0.82101067  0.11630007  0.57637134    -0.52700
C593        C  0.81772041  0.08742069  0.57804601     0.10500
C594        C  0.78011535  0.07714292  0.60262815     0.21400
C595        C  0.72599349  0.12220304  0.59880702    -0.53400
C596        C  0.72165501  0.09312407  0.60031626     0.10600
C597        C  0.81157741  0.11830693  0.62811122    -0.53000
C598        C  0.80733381  0.08967007  0.62884482     0.11100
H599        H  0.84904127  0.12682087  0.56110264     0.15600
H600        H  0.77660454  0.05363218  0.60363365     0.01400
H601        H  0.68902003  0.13660535  0.60043933     0.15900
H602        H  0.82828444  0.12956116  0.64599254     0.15700
N603        N  0.41415029  0.11290043  0.51613359    -0.35600
N604        N  0.49197904  0.10824870  0.56427897    -0.56100
N605        N  0.58601794  0.09410670  0.52497963    -0.35600
N606        N  0.51811508  0.10883275  0.96891502    -0.56100
C607        C  0.38093402  0.12413558  0.53724995     0.28000
C608        C  0.39747289  0.11305306  0.98805337     0.28000
C609        C  0.61032444  0.08568457  0.54998332     0.28000
C610        C  0.63491360  0.10035112  0.99133933     0.28000
C611        C  0.44330349  0.11514645  0.57904863     0.36600
C612        C  0.53389368  0.10432898  0.58367989     0.36600
C613        C  0.47395376  0.11089379  0.95079435     0.36600
C614        C  0.56595536  0.11200876  0.95297191     0.36600
C615        C  0.33482031  0.13919763  0.52572948    -0.20900
C616        C  0.34409432  0.12421971  0.99594492    -0.20900
C617        C  0.65859189  0.06877082  0.54401269    -0.20800
C618        C  0.68763063  0.08860499  0.99898315    -0.20800
C619        C  0.45427880  0.11621045  0.60794817    -0.21900
C620        C  0.51171900  0.10980190  0.61088705    -0.21900
C621        C  0.49373378  0.11505952  0.92305533    -0.21900
C622        C  0.55237269  0.11632667  0.92454139    -0.21900
C623        C  0.38896554  0.12022412  0.56678169    -0.17300
C624        C  0.41615852  0.11020076  0.95927317    -0.17300
C625        C  0.62171274  0.10955863  0.96358174    -0.17300
C626        C  0.58925374  0.09207009  0.57797163    -0.17300
H627        H  0.30085290  0.15061442  0.53713288     0.15700
H628        H  0.31086997  0.13261833  0.98209008     0.15700
H629        H  0.68646903  0.05780887  0.55891039     0.15700
H630        H  0.72430129  0.08393666  0.98520373     0.15700
H631        H  0.42414016  0.12109113  0.62511107     0.13900
H632        H  0.53414613  0.10835440  0.63096274     0.13900
H633        H  0.46875334  0.11759548  0.90385854     0.13900
H634        H  0.58163158  0.11929198  0.90667491     0.13900
H635        H  0.44916356  0.09911663  0.51877255     0.27200
H636        H  0.55050243  0.10748967  0.52247512     0.27200
C637        C  0.21586531  0.41907151  0.85887679     0.87500
C638        C  0.19106454  0.38977587  0.85416549    -0.52700
C639        C  0.18288081  0.37470615  0.87882045     0.10500
C640        C  0.19799759  0.39106927  0.90623828     0.21400
C641        C  0.17406746  0.43392300  0.87936990    -0.53400
C642        C  0.16434702  0.41988713  0.90443757     0.10600
C643        C  0.27031746  0.41385025  0.87616510    -0.53000
C644        C  0.26101688  0.39888879  0.90078989     0.11100
H645        H  0.18183349  0.38147013  0.83316099     0.15600
H646        H  0.19053591  0.37929642  0.92651017     0.01400
H647        H  0.15433839  0.45449248  0.87442892     0.15900
H648        H  0.31256963  0.42055570  0.86913443     0.15700
N649        N  0.02615624  0.29074058  0.88928795    -0.35600
N650        N  0.11804801  0.25063240  0.90455838    -0.56100
N651        N  0.03626864  0.20612167  0.89520649    -0.35600
N652        N  0.94275462  0.24633850  0.88432411    -0.56100
C653        C  0.06732348  0.30835819  0.89826321     0.28000
C654        C  0.97657442  0.30634750  0.88779844     0.28000
C655        C  0.07830137  0.19370676  0.91084226     0.28000
C656        C  0.98834352  0.19133241  0.90069517     0.28000
C657        C  0.15005111  0.27398626  0.90164362     0.36600
C658        C  0.15484347  0.22804891  0.90500839     0.36600
C659        C  0.91035620  0.26806233  0.87403499     0.36600
C660        C  0.91605100  0.22216467  0.87769849     0.36600
C661        C  0.04341488  0.33521269  0.90288453    -0.20900
C662        C  0.98704082  0.33411704  0.89555869    -0.20900
C663        C  0.05665668  0.17156738  0.92698839    -0.20800
C664        C  0.99987990  0.16994574  0.92035805    -0.20800
C665        C  0.20794518  0.26633037  0.90088633    -0.21900
C666        C  0.21099468  0.23704277  0.90291353    -0.21900
C667        C  0.86194769  0.25771263  0.86108939    -0.21900
C668        C  0.86585186  0.22843244  0.86318478    -0.21900
C669        C  0.12700772  0.30192547  0.89995261    -0.17300
C670        C  0.92289167  0.29694127  0.87791000    -0.17300
C671        C  0.93588729  0.19506343  0.88657980    -0.17300
C672        C  0.13692374  0.19982434  0.90842284    -0.17300
H673        H  0.06474932  0.35409871  0.90985329     0.15700
H674        H  0.95812843  0.35226338  0.89490044     0.15700
H675        H  0.07985350  0.15761559  0.94149636     0.15700
H676        H  0.97055866  0.15480938  0.92913245     0.15700
H677        H  0.24404221  0.28032329  0.89889667     0.13900
H678        H  0.24989331  0.22401255  0.90294925     0.13900
H679        H  0.82750932  0.26995892  0.85128035     0.13900
H680        H  0.83496938  0.21360870  0.85538894     0.13900
H681        H  0.03250419  0.26992696  0.88264995     0.27200
H682        H  0.04128874  0.22189417  0.87969941     0.27200
C683        C  0.27627552  0.09160319  0.92268106     0.87500
C684        C  0.24976900  0.12162574  0.92075147    -0.52700
C685        C  0.20002749  0.12312026  0.90574083     0.10500
C686        C  0.18035363  0.09393318  0.89489652     0.21400
C687        C  0.22906894  0.07356040  0.93599648    -0.53400
C688        C  0.17877940  0.07464769  0.92173987     0.10600
C689        C  0.28261655  0.08158206  0.89169107    -0.53000
C690        C  0.23213146  0.08287388  0.87695537     0.11100
H691        H  0.26949972  0.13986526  0.93023844     0.15600
H692        H  0.13919459  0.09488999  0.88315654     0.01400
H693        H  0.23401522  0.06187177  0.95594699     0.15900
H694        H  0.32292456  0.07360565  0.88258997     0.15700
N695        N  0.27329073  0.00518605  0.79080960    -0.35600
N696        N  0.26242146  0.45921136  0.73746485    -0.56100
N697        N  0.25074599  0.00945024  0.70592577    -0.35600
N698        N  0.25786066  0.05175663  0.75078147    -0.56100
C699        C  0.28239923  0.47873337  0.79600361     0.28000
C700        C  0.28842723  0.02750777  0.80681994     0.28000
C701        C  0.25002666  0.48321372  0.68073030     0.28000
C702        C  0.25699568  0.03410604  0.69147454     0.28000
C703        C  0.25779774  0.44222394  0.76061225     0.36600
C704        C  0.24395078  0.44397957  0.71522551     0.36600
C705        C  0.25149958  0.06625814  0.77547985     0.36600
C706        C  0.23529205  0.06837955  0.72995210     0.36600
C707        C  0.30816445  0.48669446  0.82116930    -0.20900
C708        C  0.31829812  0.01779729  0.83056417    -0.20900
C709        C  0.27006906  0.49399674  0.65498862    -0.20800
C710        C  0.28208517  0.02874272  0.66494207    -0.20800
C711        C  0.23742216  0.41592466  0.75307671    -0.21900
C712        C  0.22849696  0.41703810  0.72419577    -0.21900
C713        C  0.22596506  0.09262345  0.77032605    -0.21900
C714        C  0.21523574  0.09391266  0.74142070    -0.21900
C715        C  0.27132535  0.45040530  0.78843211    -0.17300
C716        C  0.27014095  0.05595428  0.80227306    -0.17300
C717        C  0.23533593  0.06083191  0.70075549    -0.17300
C718        C  0.24239711  0.45422948  0.68697332    -0.17300
H719        H  0.32746209  0.47283186  0.83708401     0.15700
H720        H  0.33502669  0.03036993  0.84770189     0.15700
H721        H  0.28587960  0.48209834  0.63669230     0.15700
H722        H  0.29228720  0.04407714  0.64841725     0.15700
H723        H  0.22897439  0.39799725  0.76697375     0.13900
H724        H  0.21159783  0.40009686  0.71151151     0.13900
H725        H  0.21578553  0.10905235  0.78577343     0.13900
H726        H  0.19525275  0.11165674  0.73025767     0.13900
H727        H  0.24651168  0.00580593  0.77324534     0.27200
H728        H  0.22941122  0.00700083  0.72540600     0.27200
C729        C  0.14722467  0.13643749  0.60657702     0.87500
C730        C  0.15040835  0.11912439  0.63463991    -0.52700
C731        C  0.17497173  0.09275562  0.63128989     0.10500
C732        C  0.19356618  0.08577012  0.60048793     0.21400
C733        C  0.20940946  0.13670696  0.59543467    -0.53400
C734        C  0.23398688  0.11017678  0.59245112     0.10600
C735        C  0.11578196  0.11742402  0.58569113    -0.53000
C736        C  0.13949928  0.09090036  0.58251979     0.11100
H737        H  0.13610796  0.12653280  0.65543319     0.15600
H738        H  0.21344997  0.06423088  0.59789651     0.01400
H739        H  0.23145841  0.15608880  0.58982385     0.15900
H740        H  0.07706783  0.12430589  0.57464016     0.15700
C741        C  0.13852553  0.37249318  0.60891360     0.87500
C742        C  0.09770224  0.38975373  0.58941395    -0.52700
C743        C  0.12008595  0.41457978  0.57951692     0.10500
C744        C  0.18101826  0.41988509  0.58989406     0.21400
C745        C  0.19366344  0.36821447  0.59120139    -0.53400
C746        C  0.21592792  0.39308011  0.58110183     0.10600
C747        C  0.15468841  0.39307221  0.63253874    -0.53000
C748        C  0.17715124  0.41782090  0.62255338     0.11100
H749        H  0.05488550  0.38298831  0.58405995     0.15600
H750        H  0.19924913  0.44007264  0.58183539     0.01400
H751        H  0.21194418  0.34733745  0.58643098     0.15900
H752        H  0.14900354  0.38851993  0.65516361     0.15700
N753        N  0.94917150  0.21081014  0.62263158    -0.35600
N754        N  0.86081302  0.25467006  0.61756272    -0.56100
N755        N  0.95163572  0.29587444  0.61186714    -0.35600
N756        N  0.03944633  0.25260839  0.62033597    -0.56100
C757        C  0.90122820  0.19722387  0.63126000     0.28000
C758        C  0.99474767  0.19619423  0.63351493     0.28000
C759        C  0.90465343  0.31212087  0.61814678     0.28000
C760        C  0.99799908  0.31106918  0.61877031     0.28000
C761        C  0.82812761  0.23170006  0.61383208     0.36600
C762        C  0.82949674  0.27740879  0.60862605     0.36600
C763        C  0.07215131  0.22867272  0.61875771     0.36600
C764        C  0.07305699  0.27410462  0.61178173     0.36600
C765        C  0.91664450  0.17408672  0.64811011    -0.20900
C766        C  0.97555026  0.17315663  0.64922337    -0.20900
C767        C  0.92130720  0.33745965  0.63014472    -0.20800
C768        C  0.98021963  0.33708476  0.62993389    -0.20800
C769        C  0.77532066  0.23979472  0.60282062    -0.21900
C770        C  0.77622389  0.26888065  0.59938843    -0.21900
C771        C  0.12749798  0.23503977  0.60987309    -0.21900
C772        C  0.12790078  0.26395467  0.60518690    -0.21900
C773        C  0.84463893  0.20403028  0.62238301    -0.17300
C774        C  0.05309660  0.20178080  0.62755975    -0.17300
C775        C  0.05531333  0.30284608  0.61238418    -0.17300
C776        C  0.84782412  0.30568801  0.61054425    -0.17300
H777        H  0.88867614  0.15989188  0.65936854     0.15700
H778        H  0.00111202  0.15737507  0.66055461     0.15700
H779        H  0.89387851  0.35483639  0.63757974     0.15700
H780        H  0.00625879  0.35423224  0.63717065     0.15700
H781        H  0.73979779  0.22624196  0.59808071     0.13900
H782        H  0.74146232  0.28213503  0.59127522     0.13900
H783        H  0.16397581  0.22055594  0.60745462     0.13900
H784        H  0.16462145  0.27617512  0.59856160     0.13900
H785        H  0.95093718  0.22772536  0.60834370     0.27200
H786        H  0.95216679  0.27664757  0.60092573     0.27200
C787        C  0.11307044  0.34540171  0.62028774    -0.15400
C788        C  0.09533742  0.32509957  0.60273690    -0.30600
H789        H  0.10483883  0.34332146  0.64310110     0.13600
H790        H  0.10474859  0.32658242  0.58000069     0.14200
C791        C  0.11882686  0.16568125  0.60735146    -0.15400
C792        C  0.09489973  0.17782089  0.63063757    -0.30600
H793        H  0.11319701  0.17627360  0.58682800     0.13600
H794        H  0.09821614  0.16803953  0.65148662     0.14200
C795        C  0.19670483  0.44026969  0.64163882    -0.15400
C796        C  0.23067016  0.43377745  0.66382184    -0.30600
H797        H  0.18124956  0.46187935  0.63787607     0.13600
H798        H  0.24547601  0.41186824  0.66649588     0.14200
C799        C  0.18721382  0.07319928  0.65519620    -0.15400
C800        C  0.21409560  0.08166954  0.67892218    -0.30600
H801        H  0.17956073  0.05083820  0.65169458     0.13600
H802        H  0.22178496  0.10411516  0.68195075     0.14200
C803        C  0.26911365  0.07475664  0.82759486    -0.15400
C804        C  0.22661287  0.07272861  0.84721772    -0.30600
H805        H  0.30779221  0.08616275  0.83239563     0.13600
H806        H  0.18777947  0.06166826  0.84188383     0.14200
C807        C  0.17914206  0.17562098  0.91094609    -0.15400
C808        C  0.16712079  0.14982302  0.90005773    -0.30600
H809        H  0.21830491  0.17894845  0.92255512     0.13600
H810        H  0.12886755  0.14768318  0.88729536     0.14200
C811        C  0.22453212  0.43639251  0.83240294    -0.15400
C812        C  0.26316078  0.42977979  0.81196599    -0.30600
H813        H  0.19980487  0.45620594  0.83036744     0.13600
H814        H  0.28712154  0.40970707  0.81230610     0.14200
C815        C  0.16610614  0.32647788  0.89908838    -0.15400
C816        C  0.16056336  0.34568158  0.87787333    -0.30600
H817        H  0.19460690  0.32991973  0.91682655     0.13600
H818        H  0.13450699  0.34050867  0.85958290     0.14200
C819        C  0.29252455  0.10512445  0.58067581    -0.15400
C820        C  0.33658408  0.12257924  0.58522834    -0.30600
H821        H  0.29882260  0.08708575  0.56651143     0.13600
H822        H  0.33257364  0.13971825  0.60059277     0.14200
C823        C  0.37205161  0.10862194  0.93691769    -0.15400
C824        C  0.32983122  0.08998934  0.94001587    -0.30600
H825        H  0.37233993  0.12343092  0.91903340     0.13600
H826        H  0.33131405  0.07519858  0.95796480     0.14200
C827        C  0.79875577  0.16415124  0.59882089    -0.15400
C828        C  0.80239444  0.18071644  0.62211849    -0.30600
H829        H  0.81853269  0.17202918  0.57923624     0.13600
H830        H  0.78571297  0.17342315  0.64256233     0.14200
C831        C  0.61658153  0.07807590  0.60323770    -0.15400
C832        C  0.67090378  0.07875506  0.61250602    -0.30600
H833        H  0.58774630  0.06554697  0.61644757     0.13600
H834        H  0.67968212  0.06595941  0.63133021     0.14200
C835        C  0.79861476  0.07727155  0.67887777    -0.15400
C836        C  0.82273439  0.07198266  0.65335598    -0.30600
H837        H  0.77610662  0.09739841  0.68281755     0.13600
H838        H  0.84411875  0.05163491  0.64921794     0.14200
C839        C  0.85098846  0.16453672  0.89276956    -0.15400
C840        C  0.90350971  0.16877413  0.88176857    -0.30600
H841        H  0.82630165  0.18229421  0.90172178     0.13600
H842        H  0.92837593  0.15037290  0.87427704     0.19200
C843        C  0.69450524  0.09966119  0.92672852    -0.15400
C844        C  0.66983267  0.11780962  0.94518715    -0.30600
H845        H  0.67751964  0.07850662  0.92435332     0.13600
H846        H  0.68916674  0.13794559  0.94997933     0.14200
C847        C  0.78518516  0.07496305  0.82577979    -0.15400
C848        C  0.80585529  0.06835885  0.85150252    -0.30600
H849        H  0.77255145  0.09682792  0.82095744     0.13600
H850        H  0.81819972  0.04659227  0.85683348     0.14200
C851        C  0.30687050  0.37359245  0.56074173    -0.15400
C852        C  0.26669966  0.39443162  0.56199536    -0.30600
H853        H  0.30592868  0.35554703  0.57525487     0.13600
H854        H  0.27114501  0.41313907  0.54849135     0.14200
C855        C  0.34882247  0.40742255  0.92702199    -0.15400
C856        C  0.30783932  0.38953546  0.91947829    -0.30600
H857        H  0.34919751  0.42877913  0.91807063     0.13600
H858        H  0.30721763  0.36800258  0.92791611     0.14200
C859        C  0.74079037  0.42141955  0.65290263    -0.15400
C860        C  0.78735672  0.42924834  0.66727182    -0.30600
H861        H  0.69895398  0.42477812  0.66311088     0.13600
H862        H  0.83006295  0.42646171  0.65809111     0.14200
C863        C  0.82148381  0.35387727  0.59269432    -0.15400
C864        C  0.80572866  0.32940141  0.60515377    -0.30600
H865        H  0.86557616  0.35704566  0.58583532     0.13600
H866        H  0.76113728  0.32686390  0.61162230     0.14200
C867        C  0.64418704  0.40550027  0.55879348    -0.15400
C868        C  0.60387684  0.38608320  0.56289066    -0.30600
H869        H  0.64045396  0.41982235  0.54053418     0.13600
H870        H  0.60505448  0.37195120  0.58131718     0.14200
C871        C  0.69226739  0.40154720  0.91988410    -0.15400
C872        C  0.64597828  0.38529499  0.91685693    -0.30600
H873        H  0.69121162  0.41853995  0.93548893     0.13600
H874        H  0.64583095  0.36878743  0.90076167     0.14200
C875        C  0.81511586  0.42910947  0.84514842    -0.15400
C876        C  0.79952655  0.42268604  0.81826394    -0.30600
H877        H  0.82368189  0.45092923  0.85072075     0.13600
H878        H  0.79140359  0.40070919  0.81306370     0.14200
C879        C  0.85151160  0.33236372  0.89418258    -0.15400
C880        C  0.87818376  0.31919846  0.87208287    -0.30600
H881        H  0.85324082  0.32200146  0.91500167     0.13600
H882        H  0.87808127  0.32829681  0.85083216     0.14200
N883        N  0.07016339  0.53260094  0.04844397    -0.05100
N884        N  0.10776984  0.54045858  0.06768391    -0.57200
N885        N  0.93550914  0.55017690  0.02944799    -0.04800
N886        N  0.89648724  0.57032376  0.03374412    -0.59300
N887        N  0.93700288  0.53211807  0.05092130    -0.04400
N888        N  0.89879962  0.54021911  0.07070208    -0.57200
N889        N  0.06712681  0.55138540  0.02757586    -0.04000
N890        N  0.10202854  0.57245420  0.03236538    -0.59700
C891        C  0.12802677  0.56518945  0.05710598     0.97100
C892        C  0.87299529  0.56384698  0.05925658     0.96900
N893        N  0.89169441  0.53653264  0.44239425    -0.05300
N894        N  0.85568307  0.54511662  0.42231998    -0.57800
N895        N  0.02649540  0.55375988  0.45778638    -0.03400
N896        N  0.06732918  0.57184191  0.45176710    -0.59000
N897        N  0.02314538  0.53454568  0.43760572    -0.05300
N898        N  0.06222333  0.53925674  0.41735719    -0.58000
N899        N  0.89664128  0.55652015  0.46168398    -0.03000
N900        N  0.86451707  0.57894063  0.45512770    -0.59100
Mn901      Mn  0.99883100  0.55033602  0.99538358     1.18400
C902        C  0.83859816  0.57144714  0.43086483     0.99200
C903        C  0.08883071  0.56284765  0.42641217     0.99800
N904        N  0.94309769  0.96797595  0.06010947    -0.05300
N905        N  0.90507197  0.96275228  0.08066221    -0.61600
N906        N  0.07276911  0.94681194  0.03703324    -0.04100
N907        N  0.10796411  0.92569173  0.04452449    -0.62300
N908        N  0.07375162  0.96721019  0.05624444    -0.04800
N909        N  0.11049641  0.96057334  0.07659135    -0.61900
N910        N  0.94242760  0.94804754  0.04048916    -0.03700
N911        N  0.90354032  0.92913307  0.04711102    -0.62600
Mn912      Mn  0.00743815  0.00149832  0.05817142     1.10700
C913        C  0.88103769  0.93836501  0.07223050     1.00400
C914        C  0.13208170  0.93488428  0.06884139     1.00500
N915        N  0.04649737  0.96748332  0.44608721    -0.04800
N916        N  0.07928913  0.96114782  0.42390852    -0.60200
N917        N  0.92043464  0.94829727  0.47056504    -0.04100
N918        N  0.88659203  0.92692714  0.46515445    -0.56900
N919        N  0.91585951  0.96800690  0.45048628    -0.05500
N920        N  0.87824035  0.96017521  0.43117267    -0.59800
N921        N  0.05073326  0.94737767  0.46575771    -0.04400
N922        N  0.08651898  0.92674839  0.45683819    -0.57000
Mn923      Mn  0.95607528  0.50145758  0.44018408     1.20200
Mn924      Mn  0.98918641  0.94776518  0.50261045     1.10100
Cl925      Cl  0.00267846  0.49671003  0.99696190    -0.84900
C926        C  0.10419484  0.93587905  0.43066175     0.97400
C927        C  0.85974116  0.93466453  0.44085799     0.97200
C928        C  0.80961357  0.86936447  0.39939480     0.87500
C929        C  0.74839100  0.87219628  0.41051565    -0.52700
C930        C  0.72920903  0.89959397  0.41404835     0.10500
C931        C  0.77411797  0.92202629  0.40584609     0.21400
C932        C  0.81059206  0.88689225  0.37147996    -0.53400
C933        C  0.79193216  0.91446065  0.37503287     0.10600
C934        C  0.84501158  0.88663696  0.42055257    -0.53000
C935        C  0.82727274  0.91432791  0.42355019     0.11100
H936        H  0.72347715  0.85382518  0.41655340     0.15600
H937        H  0.75864297  0.94436177  0.40863307     0.01400
H938        H  0.82607835  0.87893878  0.35106182     0.15900
H939        H  0.88180762  0.87781939  0.43185958     0.15700
C940        C  0.74363883  0.89846944  0.08305861     0.87500
C941        C  0.78540784  0.91918354  0.06948058    -0.52700
C942        C  0.83106600  0.92507188  0.08585014     0.10500
C943        C  0.83044833  0.90980756  0.11518298     0.21400
C944        C  0.78027197  0.87220462  0.09075001    -0.53400
C945        C  0.82567709  0.87810229  0.10768658     0.10600
C946        C  0.72580733  0.91163709  0.11165826    -0.53000
C947        C  0.77093879  0.91737479  0.12892168     0.11100
H948        H  0.78144876  0.92709636  0.04770718     0.15600
H949        H  0.86835438  0.91433606  0.12834203     0.01400
H950        H  0.77211576  0.85106431  0.08278901     0.15900
H951        H  0.68124589  0.91578018  0.11781449     0.15700
N952        N  0.58585579  0.87883634  0.99878317    -0.35600
N953        N  0.48196709  0.88054954  0.45666658    -0.56100
N954        N  0.39608201  0.87492446  0.50126970    -0.35600
N955        N  0.50266181  0.87294778  0.04496383    -0.56100
C956        C  0.60144965  0.87695891  0.47604431     0.28000
C957        C  0.61810902  0.86807087  0.02022475     0.28000
C958        C  0.36554518  0.86879773  0.47782199     0.28000
C959        C  0.38315815  0.87429900  0.02641067     0.28000
C960        C  0.52697882  0.88857593  0.44032015     0.36600
C961        C  0.43461479  0.88498293  0.44079833     0.36600
C962        C  0.55030148  0.87677276  0.06026552     0.36600
C963        C  0.45816294  0.87910525  0.06264130     0.36600
C964        C  0.65475898  0.86500389  0.48256724    -0.20900
C965        C  0.66829654  0.85584383  0.00921548    -0.20900
C966        C  0.31710413  0.85388264  0.48580452    -0.20800
C967        C  0.32945538  0.86557745  0.01843108    -0.20800
C968        C  0.50853381  0.89775541  0.41377514    -0.21900
C969        C  0.44985577  0.89567085  0.41410045    -0.21900
C970        C  0.53616987  0.88514832  0.08786330    -0.21900
C971        C  0.47729455  0.88652998  0.08939483    -0.21900
C972        C  0.58469612  0.88584776  0.44844885    -0.17300
C973        C  0.60603841  0.87194621  0.04956766    -0.17300
C974        C  0.40065925  0.87704167  0.05490852    -0.17300
C975        C  0.37844649  0.87807058  0.44973551    -0.17300
H976        H  0.68988482  0.85990346  0.46800837     0.15700
H977        H  0.70320120  0.84604213  0.02105054     0.15700
H978        H  0.28442313  0.84574261  0.47203802     0.15700
H979        H  0.29537207  0.85783745  0.03215147     0.15700
H980        H  0.53464401  0.90502806  0.39600392     0.13900
H981        H  0.42203496  0.90132044  0.39654426     0.13900
H982        H  0.56509747  0.88985132  0.10501577     0.13900
H983        H  0.45156907  0.89248147  0.10792241     0.13900
H984        H  0.52954803  0.89017962  0.50199247     0.27200
H985        H  0.43221033  0.88744558  0.50210516     0.27200
C986        C  0.79169736  0.63751491  0.38809393     0.87500
C987        C  0.79216927  0.62018368  0.36025821    -0.52700
C988        C  0.77391201  0.59288004  0.36413247     0.10500
C989        C  0.75638724  0.58559097  0.39481675     0.21400
C990        C  0.73005844  0.63586236  0.39935258    -0.53400
C991        C  0.71177216  0.60862962  0.40330250     0.10600
C992        C  0.82689108  0.61935221  0.40932236    -0.53000
C993        C  0.80877329  0.59220631  0.41248707     0.11100
H994        H  0.80726408  0.62833858  0.33982751     0.15600
H995        H  0.74140940  0.56349922  0.39782185     0.01400
H996        H  0.70406091  0.65464243  0.40439302     0.15900
H997        H  0.86325670  0.62706037  0.42075592     0.15700
N998        N  0.77579801  0.00757286  0.21081857    -0.35600
N999        N  0.74987556  0.54692037  0.24216977    -0.56100
N1000       N  0.76447845  0.00432654  0.29683283    -0.35600
N1001       N  0.77571097  0.96198130  0.25146938    -0.56100
C1002       C  0.74292613  0.52629923  0.18370686     0.28000
C1003       C  0.76457130  0.98489238  0.19441496     0.28000
C1004       C  0.74378212  0.52477345  0.30014061     0.28000
C1005       C  0.74955585  0.97986930  0.30991525     0.28000
C1006       C  0.75918377  0.56360841  0.21914201     0.36600
C1007       C  0.76164508  0.56281658  0.26508376     0.36600
C1008       C  0.79523192  0.94772106  0.22819023     0.36600
C1009       C  0.78856189  0.94565628  0.27436477     0.36600
C1010       C  0.72093329  0.51716140  0.15811186    -0.20900
C1011       C  0.73574464  0.99390574  0.17008095    -0.20900
C1012       C  0.71294499  0.51524956  0.32365573    -0.20800
C1013       C  0.71390950  0.98601028  0.33319136    -0.20800
C1014       C  0.77634641  0.59029459  0.22740516    -0.21900
C1015       C  0.77801962  0.58977956  0.25664051    -0.21900
C1016       C  0.82018781  0.92196576  0.23619939    -0.21900
C1017       C  0.81607794  0.92065342  0.26558921    -0.21900
C1018       C  0.75120893  0.55496877  0.19088173    -0.17300
C1019       C  0.78548556  0.95706521  0.19999221    -0.17300
C1020       C  0.77177001  0.95253207  0.30262999    -0.17300
C1021       C  0.75368527  0.55364997  0.29340347    -0.17300
H1022       H  0.70270958  0.53013767  0.14118470     0.15700
H1023       H  0.72164076  0.98147184  0.15233053     0.15700
H1024       H  0.68991916  0.52805077  0.33935784     0.15700
H1025       H  0.69461708  0.97106236  0.34790094     0.15700
H1026       H  0.78711101  0.60818268  0.21389182     0.13900
H1027       H  0.79011415  0.60725020  0.27003110     0.13900
H1028       H  0.83841108  0.90569377  0.22234644     0.13900
H1029       H  0.83107839  0.90317387  0.27885435     0.13900
H1030       H  0.80118551  0.00761304  0.22897549     0.27200
H1031       H  0.79364502  0.00620202  0.27988432     0.27200
C1032       C  0.84108263  0.63272606  0.09915955     0.87500
C1033       C  0.87340825  0.61118970  0.08023320    -0.52700
C1034       C  0.84538300  0.58654785  0.07624296     0.10500
C1035       C  0.78610846  0.58584618  0.09087250     0.21400
C1036       C  0.78317395  0.63752778  0.08463652    -0.53400
C1037       C  0.75382512  0.61306995  0.08051954     0.10600
C1038       C  0.82754375  0.61633630  0.12678380    -0.53000
C1039       C  0.79886835  0.59181002  0.12217961     0.11100
H1040       H  0.91588408  0.61479011  0.07117037     0.15600
H1041       H  0.76332924  0.56572723  0.08728536     0.01400
H1042       H  0.76715778  0.65833003  0.07787863     0.15900
H1043       H  0.84186884  0.62268846  0.14773038     0.15700
N1044       N  0.42232383  0.60648490  0.99521939    -0.35600
N1045       N  0.50730386  0.60013038  0.03980712    -0.56100
N1046       N  0.59580449  0.59731207  0.99492597    -0.35600
N1047       N  0.48362123  0.60689925  0.46236166    -0.56100
C1048       C  0.39054132  0.61409791  0.01857630     0.28000
C1049       C  0.36374136  0.61211098  0.48193133     0.28000
C1050       C  0.62660119  0.58940423  0.01810138     0.28000
C1051       C  0.60135478  0.60432477  0.48466655     0.28000
C1052       C  0.46062056  0.60300164  0.05707488     0.36600
C1053       C  0.55338417  0.59731500  0.05688649     0.36600
C1054       C  0.43904028  0.60607666  0.44447985     0.36600
C1055       C  0.53084685  0.60941637  0.44579867     0.36600
C1056       C  0.34072718  0.62830620  0.01007042    -0.20900
C1057       C  0.31124086  0.62466603  0.48925690    -0.20900
C1058       C  0.67879632  0.57731079  0.00939597    -0.20800
C1059       C  0.65536788  0.59471794  0.49275978    -0.20800
C1060       C  0.47699001  0.60163473  0.08540766    -0.21900
C1061       C  0.53594729  0.59831871  0.08528677    -0.21900
C1062       C  0.45804875  0.60734060  0.41631825    -0.21900
C1063       C  0.51646058  0.61010143  0.41719484    -0.21900
C1064       C  0.40413034  0.60864361  0.04755269    -0.17300
C1065       C  0.38140140  0.60681918  0.45338416    -0.17300
C1066       C  0.58674107  0.61055971  0.45627804    -0.17300
C1067       C  0.61074060  0.59357152  0.04710921    -0.17300
H1068       H  0.30692899  0.63737117  0.02349982     0.15700
H1069       H  0.27821391  0.63262701  0.47507811     0.15700
H1070       H  0.71265443  0.56872484  0.02277040     0.15700
H1071       H  0.69223450  0.59013078  0.47907755     0.15700
H1072       H  0.44954608  0.60353417  0.10416777     0.13900
H1073       H  0.56278736  0.59667667  0.10394207     0.13900
H1074       H  0.43256120  0.60740363  0.39716925     0.13900
H1075       H  0.54495200  0.61201954  0.39887933     0.13900
H1076       H  0.46010800  0.59434030  0.99497181     0.27200
H1077       H  0.55653244  0.60824958  0.99512875     0.27200
C1078       C  0.20430037  0.91873609  0.36756730     0.87500
C1079       C  0.17834370  0.88997447  0.36158404    -0.52700
C1080       C  0.16332199  0.87526683  0.38569094     0.10500
C1081       C  0.17402898  0.89150161  0.41390937     0.21400
C1082       C  0.15937789  0.93450612  0.38577966    -0.53400
C1083       C  0.14368041  0.92090502  0.41030036     0.10600
C1084       C  0.25411939  0.91246958  0.38775615    -0.53000
C1085       C  0.23832058  0.89811235  0.41196730     0.11100
H1086       H  0.17263617  0.88185642  0.34016442     0.15600
H1087       H  0.16122910  0.88002039  0.43369431     0.01400
H1088       H  0.14270413  0.95550820  0.38005966     0.15900
H1089       H  0.29767012  0.91935640  0.38360016     0.15700
N1090       N  0.99536910  0.79352241  0.39008228    -0.35600
N1091       N  0.08421522  0.75171591  0.40489780    -0.56100
N1092       N  0.99961498  0.70849249  0.39435859    -0.35600
N1093       N  0.90862424  0.75015668  0.38426083    -0.56100
C1094       C  0.03760102  0.81048167  0.39925132     0.28000
C1095       C  0.94700059  0.80994249  0.38818413     0.28000
C1096       C  0.04127738  0.69499018  0.40938280     0.28000
C1097       C  0.95090450  0.69415337  0.39935173     0.28000
C1098       C  0.11762857  0.77462389  0.40197839     0.36600
C1099       C  0.11948400  0.72854659  0.40366824     0.36600
C1100       C  0.87740854  0.77267806  0.37473634     0.36600
C1101       C  0.88004155  0.72655798  0.37731276     0.36600
C1102       C  0.01559812  0.83774423  0.40344620    -0.20900
C1103       C  0.95967678  0.83764285  0.39547149    -0.20900
C1104       C  0.01861464  0.67257233  0.42476650    -0.20800
C1105       C  0.96151153  0.67197570  0.41826883    -0.20800
C1106       C  0.17479657  0.76605910  0.39937545    -0.21900
C1107       C  0.17596514  0.73672214  0.40026567    -0.21900
C1108       C  0.82768670  0.76342041  0.36212068    -0.21900
C1109       C  0.82975912  0.73405367  0.36339237    -0.21900
C1110       C  0.09666043  0.80300413  0.40180009    -0.17300
C1111       C  0.89221773  0.80131254  0.37886824    -0.17300
C1112       C  0.89881997  0.69882902  0.38502298    -0.17300
C1113       C  0.10023690  0.70047122  0.40680407    -0.17300
H1114       H  0.03782857  0.85630183  0.41055383     0.15700
H1115       H  0.93274212  0.85647764  0.39416710     0.15700
H1116       H  0.04129043  0.65777985  0.43864475     0.15700
H1117       H  0.93138781  0.65696352  0.42660037     0.15700
H1118       H  0.21158918  0.77950580  0.39669309     0.13900
H1119       H  0.21391707  0.72310094  0.39862434     0.13900
H1120       H  0.79374153  0.77643939  0.35286526     0.13900
H1121       H  0.79767578  0.72001855  0.35534701     0.13900
H1122       H  0.99997927  0.77246545  0.38394857     0.27200
H1123       H  0.00540057  0.72464380  0.37935087     0.27200
C1124       C  0.23899770  0.59135323  0.41771866     0.87500
C1125       C  0.21249141  0.62145775  0.41675409    -0.52700
C1126       C  0.16359532  0.62364337  0.40103965     0.10500
C1127       C  0.14536882  0.59501219  0.38820275     0.21400
C1128       C  0.19108664  0.57265877  0.42919376    -0.53400
C1129       C  0.14192260  0.57441571  0.41399764     0.10600
C1130       C  0.24779162  0.58282189  0.38655677    -0.53000
C1131       C  0.19874666  0.58484397  0.37080564     0.11100
H1132       H  0.23124673  0.63915074  0.42767055     0.15600
H1133       H  0.10518187  0.59645098  0.37569727     0.01400
H1134       H  0.19447145  0.56027590  0.44880168     0.15900
H1135       H  0.28884558  0.57504103  0.37816649     0.15700
N1136       N  0.25046101  0.50485360  0.28745069    -0.35600
N1137       N  0.28415996  0.96044976  0.25015429    -0.56100
N1138       N  0.25890146  0.50943657  0.20246081    -0.35600
N1139       N  0.24896561  0.55142159  0.24707959    -0.56100
C1140       C  0.29071206  0.97781878  0.30998712     0.28000
C1141       C  0.26180020  0.52703900  0.30449475     0.28000
C1142       C  0.28764068  0.98617832  0.19318407     0.28000
C1143       C  0.26851066  0.53417297  0.18880670     0.28000
C1144       C  0.27314878  0.94272790  0.27221039     0.36600
C1145       C  0.27311537  0.94588374  0.22621292     0.36600
C1146       C  0.23513194  0.56588449  0.27104632     0.36600
C1147       C  0.23222690  0.56787630  0.22488869     0.36600
C1148       C  0.31283265  0.98443499  0.33638557    -0.20900
C1149       C  0.28465445  0.51706085  0.32999895    -0.20900
C1150       C  0.31056335  0.99748204  0.16823845    -0.20800
C1151       C  0.30246527  0.52934019  0.16466985    -0.20800
C1152       C  0.25629094  0.91657938  0.26236423    -0.21900
C1153       C  0.25625355  0.91854962  0.23311198    -0.21900
C1154       C  0.21070107  0.59210585  0.26419723    -0.21900
C1155       C  0.20812468  0.59324502  0.23478946    -0.21900
C1156       C  0.27832491  0.95005810  0.30105375    -0.17300
C1157       C  0.24652435  0.55569231  0.29875015    -0.17300
C1158       C  0.24170932  0.56031939  0.19608575    -0.17300
C1159       C  0.27883674  0.95708751  0.19835734    -0.17300
H1160       H  0.32711148  0.96970824  0.35281246     0.15700
H1161       H  0.29715538  0.52944795  0.34817959     0.15700
H1162       H  0.32844824  0.98594580  0.15014994     0.15700
H1163       H  0.31665885  0.54491091  0.14916088     0.15700
H1164       H  0.24473895  0.89813173  0.27490883     0.13900
H1165       H  0.24419609  0.90185436  0.21875984     0.13900
H1166       H  0.19584111  0.60848636  0.27882517     0.13900
H1167       H  0.19116163  0.61084722  0.22228996     0.13900
H1168       H  0.22893799  0.50562234  0.26812032     0.27200
H1169       H  0.23089048  0.50659104  0.21973784     0.27200
C1170       C  0.17110245  0.63221512  0.09640093     0.87500
C1171       C  0.17260294  0.61617310  0.12498183    -0.52700
C1172       C  0.19494092  0.58922834  0.12289497     0.10500
C1173       C  0.21226249  0.58039772  0.09232005     0.21400
C1174       C  0.23330456  0.63067382  0.08499664    -0.53400
C1175       C  0.25499109  0.60333915  0.08272903     0.10600
C1176       C  0.13763450  0.61321894  0.07639332    -0.53000
C1177       C  0.15839981  0.58612785  0.07434689     0.11100
H1178       H  0.15805689  0.62539235  0.14507986     0.15600
H1179       H  0.22972327  0.55828881  0.09059726     0.01400
H1180       H  0.25664923  0.64924914  0.07808421     0.15900
H1181       H  0.09922159  0.62039856  0.06526882     0.15700
C1182       C  0.18252829  0.87603168  0.12017713     0.87500
C1183       C  0.14260446  0.89180203  0.09917786    -0.52700
C1184       C  0.16455082  0.91634135  0.08854285     0.10500
C1185       C  0.22400104  0.92318135  0.10013455     0.21400
C1186       C  0.23938958  0.87178594  0.10389588    -0.53400
C1187       C  0.26113610  0.89660578  0.09345945     0.10600
C1188       C  0.19533923  0.89768516  0.14322884    -0.53000
C1189       C  0.21758961  0.92225909  0.13276251     0.11100
H1190       H  0.10047793  0.88434923  0.09346709     0.15600
H1191       H  0.24187843  0.94328452  0.09165340     0.01400
H1192       H  0.25948491  0.85103213  0.10036640     0.15900
H1193       H  0.18867727  0.89375933  0.16590965     0.15700
N1194       N  0.00501782  0.71219369  0.12404898    -0.35600
N1195       N  0.91292741  0.75498859  0.12889215    -0.56100
N1196       N  0.00072344  0.79739739  0.12637952    -0.35600
N1197       N  0.09274161  0.75444770  0.12630812    -0.56100
C1198       C  0.95899660  0.69662352  0.13142229     0.28000
C1199       C  0.05251887  0.69642206  0.13049010     0.28000
C1200       C  0.95395723  0.81204963  0.13609937     0.28000
C1201       C  0.04732462  0.81179958  0.13435507     0.28000
C1202       C  0.88177626  0.73227560  0.12197425     0.36600
C1203       C  0.87983515  0.77824855  0.12329195     0.36600
C1204       C  0.12580937  0.73177373  0.11882400     0.36600
C1205       C  0.12265168  0.77754224  0.11887940     0.36600
C1206       C  0.97742330  0.67087965  0.14309202    -0.20900
C1207       C  0.03649831  0.67071021  0.14238255    -0.20900
C1208       C  0.97093187  0.83540378  0.15141312    -0.20800
C1209       C  0.02988282  0.83561599  0.14982021    -0.20800
C1210       C  0.82818576  0.74099291  0.11232300    -0.21900
C1211       C  0.82697925  0.77022086  0.11303177    -0.21900
C1212       C  0.17761750  0.74035247  0.10718200    -0.21900
C1213       C  0.17553425  0.76958378  0.10710366    -0.21900
C1214       C  0.90119061  0.70389430  0.12505713    -0.17300
C1215       C  0.10962110  0.70359884  0.12329652    -0.17300
C1216       C  0.10369148  0.80547639  0.12451941    -0.17300
C1217       C  0.89694533  0.80632714  0.12847735    -0.17300
H1218       H  0.95096992  0.65371515  0.15067730     0.15700
H1219       H  0.06448317  0.65342310  0.14932537     0.15700
H1220       H  0.94356236  0.85123446  0.16178981     0.15700
H1221       H  0.05599701  0.85181477  0.15887641     0.15700
H1222       H  0.79378970  0.72774408  0.10528955     0.13900
H1223       H  0.79129721  0.78377188  0.10653235     0.13900
H1224       H  0.21294019  0.72698774  0.09952840     0.13900
H1225       H  0.20929501  0.78334759  0.09968865     0.13900
H1226       H  0.00394334  0.73136941  0.11287378     0.27200
H1227       H  0.00075751  0.78021224  0.11246689     0.27200
C1228       C  0.15785815  0.84916920  0.13203523    -0.15400
C1229       C  0.13965667  0.82905149  0.11457214    -0.30600
H1230       H  0.15188536  0.84683673  0.15496555     0.13600
H1231       H  0.14805079  0.83079886  0.09174656     0.14200
C1232       C  0.14258744  0.66125981  0.09804573    -0.15400
C1233       C  0.15247680  0.68021388  0.11851802    -0.30600
H1234       H  0.10634572  0.66559118  0.08410411     0.13600
H1235       H  0.18817602  0.67732231  0.13301712     0.14200
C1236       C  0.23772166  0.94460599  0.15169932    -0.15400
C1237       C  0.27104511  0.93763037  0.17401666    -0.30600
H1238       H  0.22161403  0.96618752  0.14842527     0.13600
H1239       H  0.28632650  0.91574447  0.17625616     0.14200
C1240       C  0.20504832  0.57049951  0.14767753    -0.15400
C1241       C  0.22452102  0.58021032  0.17272460    -0.30600
H1242       H  0.20111492  0.54783856  0.14425343     0.13600
H1243       H  0.22861560  0.60289158  0.17591533     0.14200
C1244       C  0.24280435  0.57521518  0.32334670    -0.15400
C1245       C  0.19629879  0.57542931  0.34070919    -0.30600
H1246       H  0.28222431  0.58502821  0.32988770     0.13600
H1247       H  0.15689650  0.56597538  0.33358673     0.14200
C1248       C  0.14183304  0.67585804  0.40848722    -0.15400
C1249       C  0.12939712  0.65037035  0.39701407    -0.30600
H1250       H  0.18186458  0.67882816  0.41947089     0.13600
H1251       H  0.09043722  0.64855428  0.38472629     0.14200
C1252       C  0.22018794  0.93602948  0.34175831    -0.15400
C1253       C  0.26276235  0.92905811  0.32340829    -0.30600
H1254       H  0.19768196  0.95633084  0.33869389     0.13600
H1255       H  0.28518052  0.90860903  0.32473804     0.14200
C1256       C  0.13766053  0.82685785  0.40346850    -0.15400
C1257       C  0.13669209  0.84719422  0.38317011    -0.30600
H1258       H  0.16451495  0.82871487  0.42210763     0.13600
H1259       H  0.11219969  0.84359566  0.36395119     0.14200
C1260       C  0.31083496  0.59586461  0.06872150    -0.15400
C1261       C  0.35671182  0.61275556  0.06894748    -0.30600
H1262       H  0.31286348  0.57657949  0.05607908     0.13600
H1263       H  0.35682595  0.63143058  0.08244144     0.14200
C1264       C  0.33649052  0.60571993  0.43142284    -0.15400
C1265       C  0.29161270  0.58890372  0.43557605    -0.30600
H1266       H  0.33833351  0.61973957  0.41292731     0.13600
H1267       H  0.29128261  0.57463786  0.45395355     0.14200
C1268       C  0.87602825  0.65886575  0.10315130    -0.15400
C1269       C  0.86039911  0.68054498  0.12023878    -0.30600
H1270       H  0.91763649  0.65961515  0.09234652     0.13600
H1271       H  0.81806982  0.68125458  0.13027637     0.14200
C1272       C  0.65841979  0.59386957  0.06796672    -0.15400
C1273       C  0.69900030  0.61357680  0.06496638    -0.30600
H1274       H  0.66144460  0.57751496  0.08436690     0.13600
H1275       H  0.69242864  0.63064157  0.04949084     0.14200
C1276       C  0.75729344  0.57643171  0.16776878    -0.15400
C1277       C  0.78896030  0.57058486  0.14440525    -0.30600
H1278       H  0.73959987  0.59778619  0.17082733     0.13600
H1279       H  0.80782827  0.54954397  0.14102894     0.14200
C1280       C  0.81307750  0.66774663  0.38592837    -0.15400
C1281       C  0.86731146  0.67269151  0.37765607    -0.30600
H1282       H  0.78670004  0.68499695  0.39470760     0.13600
H1283       H  0.89352097  0.65464110  0.37040438     0.19200
C1284       C  0.65759817  0.60148818  0.41795072    -0.15400
C1285       C  0.63353391  0.61922953  0.43706385    -0.30600
H1286       H  0.64100305  0.58025926  0.41558767     0.13600
H1287       H  0.65312325  0.63928624  0.44194330     0.14200
C1288       C  0.75253768  0.57569990  0.31609197    -0.15400
C1289       C  0.77456764  0.57088970  0.34193824    -0.30600
H1290       H  0.73569126  0.59684378  0.31105903     0.13600
H1291       H  0.79095831  0.54988106  0.34772080     0.14200
C1292       C  0.35583232  0.87840526  0.07737831    -0.15400
C1293       C  0.31318167  0.89790116  0.07560341    -0.30600
H1294       H  0.35714500  0.86289978  0.09464572     0.13600
H1295       H  0.31517547  0.91459203  0.05949221     0.14200
C1296       C  0.33190798  0.88053027  0.42835001    -0.15400
C1297       C  0.27925236  0.89114443  0.43469929    -0.30600
H1298       H  0.34237777  0.87573453  0.40620049     0.13600
H1299       H  0.26653192  0.89609395  0.45651109     0.14200
C1300       C  0.75970538  0.92960454  0.15768326    -0.15400
C1301       C  0.80043988  0.93829784  0.17538982    -0.30600
H1302       H  0.71502321  0.93358549  0.16380767     0.13600
H1303       H  0.84552511  0.93392973  0.17085992     0.14200
C1304       C  0.86909853  0.85633701  0.11559159    -0.15400
C1305       C  0.85430505  0.83025433  0.12473016    -0.30600
H1306       H  0.91364978  0.86180396  0.11225915     0.13600
H1307       H  0.80896122  0.82596643  0.12754482     0.14200
C1308       C  0.69541053  0.89276687  0.06337109    -0.15400
C1309       C  0.65434604  0.87426392  0.06943038    -0.30600
H1310       H  0.69357986  0.90451269  0.04329597     0.13600
H1311       H  0.65335668  0.86332488  0.08992909     0.14200
C1312       C  0.67355158  0.90595755  0.42838120    -0.15400
C1313       C  0.62973004  0.88803265  0.42605334    -0.30600
H1314       H  0.67142334  0.92294256  0.44397249     0.13600
H1315       H  0.63034101  0.87203683  0.40941301     0.14200
C1316       C  0.79093682  0.93597671  0.35204610    -0.15400
C1317       C  0.77619099  0.93003656  0.32510066    -0.30600
H1318       H  0.79971923  0.95766221  0.35807518     0.13600
H1319       H  0.76767264  0.90823682  0.31933027     0.14200
C1320       C  0.82970641  0.83852927  0.39862979    -0.15400
C1321       C  0.84788448  0.82423459  0.37526604    -0.30600
H1322       H  0.83702971  0.82863862  0.41937622     0.13600
H1323       H  0.84066907  0.83242566  0.35393017     0.14200
N1324       N  0.03452670  0.53635246  0.54632447    -0.05100
N1325       N  0.07099845  0.54376841  0.56627353    -0.57200
N1326       N  0.90167344  0.55741199  0.52821742    -0.04800
N1327       N  0.86657734  0.57899688  0.53412802    -0.59300
N1328       N  0.90174242  0.53858950  0.54911367    -0.04400
N1329       N  0.86609471  0.54732058  0.56976827    -0.57200
N1330       N  0.03265903  0.55568067  0.52589238    -0.04000
N1331       N  0.06709217  0.57670927  0.53181729    -0.59700
C1332       C  0.09176682  0.56878179  0.55671568     0.97100
C1333       C  0.84353469  0.57232906  0.55978234     0.96900
N1334       N  0.92726036  0.52932745  0.94481095    -0.05300
N1335       N  0.89065653  0.53719217  0.92472693    -0.57800
N1336       N  0.06022686  0.54983219  0.95986776    -0.03400
N1337       N  0.09684027  0.56972397  0.95298202    -0.59000
N1338       N  0.05810371  0.53065552  0.93963238    -0.05300
N1339       N  0.09349401  0.53724359  0.91834269    -0.58000
N1340       N  0.93012321  0.54926929  0.96420558    -0.03000
N1341       N  0.89553061  0.57081481  0.95787557    -0.59100
Mn1342     Mn  0.96471994  0.55597890  0.49338337     1.18400
C1343       C  0.87027082  0.56290631  0.93354340     0.99200
C1344       C  0.11682307  0.56180671  0.92699721     0.99800
N1345       N  0.92698995  0.96875299  0.55833390    -0.05300
N1346       N  0.88990700  0.96273244  0.57913787    -0.61600
N1347       N  0.05692674  0.94810508  0.53566765    -0.04100
N1348       N  0.09102852  0.92655487  0.54324011    -0.62300
N1349       N  0.05789300  0.96827578  0.55512358    -0.04800
N1350       N  0.09344564  0.96090975  0.57584891    -0.61900
N1351       N  0.92646728  0.94903855  0.53849099    -0.03700
N1352       N  0.88867933  0.92955024  0.54517358    -0.62600
Mn1353     Mn  0.99130924  0.00283051  0.55623205     1.10700
C1354       C  0.86653724  0.93814334  0.57059559     1.00400
C1355       C  0.11451827  0.93507558  0.56794849     1.00500
N1356       N  0.06148070  0.96526294  0.94766689    -0.04800
N1357       N  0.09351260  0.95915711  0.92516119    -0.60200
N1358       N  0.93467824  0.94712164  0.97282863    -0.04100
N1359       N  0.89879813  0.92655831  0.96765800    -0.56900
N1360       N  0.93058131  0.96698777  0.95295932    -0.05500
N1361       N  0.89163505  0.96015424  0.93396659    -0.59800
N1362       N  0.06597612  0.94483379  0.96694924    -0.04400
N1363       N  0.10136976  0.92418173  0.95732975    -0.57000
Mn1364     Mn  0.99509280  0.49602836  0.94273875     1.20200
Mn1365     Mn  0.00458376  0.94603637  0.00437195     1.10100
Cl1366     Cl  0.96358865  0.50203716  0.49457045    -0.84900
C1367       C  0.11854236  0.93367148  0.93108070     0.97400
C1368       C  0.87139513  0.93507920  0.94369147     0.97200
C1369       C  0.83077981  0.87055748  0.89979209     0.87500
C1370       C  0.76813272  0.87092262  0.90992785    -0.52700
C1371       C  0.74542221  0.89780203  0.91389644     0.10500
C1372       C  0.78809891  0.92174031  0.90711564     0.21400
C1373       C  0.83124133  0.88879402  0.87251981    -0.53400
C1374       C  0.80829048  0.91551020  0.87629752     0.10600
C1375       C  0.86227490  0.88809382  0.92190874    -0.53000
C1376       C  0.84082474  0.91490800  0.92559929     0.11100
H1377       H  0.74504622  0.85168299  0.91483156     0.15600
H1378       H  0.76994097  0.94355396  0.91026266     0.01400
H1379       H  0.84851027  0.88134737  0.85218571     0.15900
H1380       H  0.90043896  0.88034844  0.93289398     0.15700
C1381       C  0.72744324  0.89908901  0.58421174     0.87500
C1382       C  0.76963462  0.91915036  0.56963336    -0.52700
C1383       C  0.81777484  0.92387311  0.58468646     0.10500
C1384       C  0.81943721  0.90789018  0.61362441     0.21400
C1385       C  0.76274949  0.87187089  0.59041532    -0.53400
C1386       C  0.81074074  0.87659814  0.60596692     0.10600
C1387       C  0.71462333  0.91199241  0.61351772    -0.53000
C1388       C  0.76252636  0.91605377  0.62941399     0.11100
H1389       H  0.76340669  0.92785951  0.54831014     0.15600
H1390       H  0.85940732  0.91128064  0.62560622     0.01400
H1391       H  0.75111780  0.85092179  0.58316309     0.15900
H1392       H  0.67131778  0.91675107  0.62130742     0.15700
N1393       N  0.56955205  0.88004963  0.50021412    -0.35600
N1394       N  0.49568425  0.88517843  0.95684804    -0.56100
N1395       N  0.41284586  0.88324841  0.00323222    -0.35600
N1396       N  0.48460586  0.86879530  0.54469269    -0.56100
C1397       C  0.61511099  0.87374251  0.97418537     0.28000
C1398       C  0.60225599  0.87036713  0.52200826     0.28000
C1399       C  0.37815805  0.88088525  0.98047909     0.28000
C1400       C  0.36681802  0.86463113  0.52399495     0.28000
C1401       C  0.54165702  0.89149469  0.94026362     0.36600
C1402       C  0.44862773  0.89504416  0.94304963     0.36600
C1403       C  0.53046462  0.87292525  0.56134921     0.36600
C1404       C  0.43793893  0.87136806  0.56192877     0.36600
C1405       C  0.66639197  0.85937254  0.98008339    -0.20900
C1406       C  0.65518434  0.86077693  0.51157674    -0.20900
C1407       C  0.32571546  0.87023252  0.98964336    -0.20800
C1408       C  0.31748489  0.85164243  0.51505082    -0.20800
C1409       C  0.52393767  0.90494986  0.91543028    -0.21900
C1410       C  0.46487802  0.90730909  0.91720962    -0.21900
C1411       C  0.51304759  0.87741703  0.58940758    -0.21900
C1412       C  0.45412785  0.87641552  0.58977074    -0.21900
C1413       C  0.59890114  0.88392513  0.94695785    -0.17300
C1414       C  0.58763909  0.87249002  0.55132774    -0.17300
C1415       C  0.38113365  0.86871767  0.55273904    -0.17300
C1416       C  0.39136576  0.89119859  0.95272810    -0.17300
H1417       H  0.69958512  0.85265195  0.96504525     0.15700
H1418       H  0.69074065  0.85203614  0.52372553     0.15700
H1419       H  0.28720985  0.86680780  0.97783236     0.15700
H1420       H  0.28515461  0.84165759  0.52828899     0.15700
H1421       H  0.55071187  0.91221747  0.89790872     0.13900
H1422       H  0.43719229  0.91655823  0.90108628     0.13900
H1423       H  0.53978527  0.88129876  0.60763416     0.13900
H1424       H  0.42643315  0.87924592  0.60832826     0.13900
H1425       H  0.54857720  0.89116645  0.00106052     0.27200
H1426       H  0.45233341  0.89306194  0.00344654     0.27200
C1427       C  0.84798057  0.62778559  0.88563054     0.87500
C1428       C  0.83609511  0.60903362  0.85984229    -0.52700
C1429       C  0.80558105  0.58539547  0.86673113     0.10500
C1430       C  0.78925946  0.58275393  0.89842027     0.21400
C1431       C  0.78888683  0.63469930  0.89899312    -0.53400
C1432       C  0.75771387  0.61117295  0.90555271     0.10600
C1433       C  0.87705785  0.60782250  0.90724490    -0.53000
C1434       C  0.84663266  0.58432808  0.91386969     0.11100
H1435       H  0.85245643  0.61332602  0.83844895     0.15600
H1436       H  0.76506128  0.56336948  0.90392335     0.01400
H1437       H  0.77378330  0.65620453  0.90363859     0.15900
H1438       H  0.91889092  0.61165787  0.91632641     0.15700
N1439       N  0.79558403  0.00349333  0.70886689    -0.35600
N1440       N  0.76450742  0.54158449  0.74674060    -0.56100
N1441       N  0.78844024  0.00247256  0.79472539    -0.35600
N1442       N  0.78732228  0.95888250  0.75123926    -0.56100
C1443       C  0.75212437  0.52259862  0.68873523     0.28000
C1444       C  0.77984718  0.98108287  0.69311104     0.28000
C1445       C  0.75947054  0.51830608  0.80413018     0.28000
C1446       C  0.76812555  0.97947895  0.80857918     0.28000
C1447       C  0.77555077  0.55839080  0.72404238     0.36600
C1448       C  0.77766505  0.55678094  0.76990446     0.36600
C1449       C  0.80255962  0.94329606  0.72813731     0.36600
C1450       C  0.79903307  0.94268289  0.77440304     0.36600
C1451       C  0.72057254  0.51424829  0.66559540    -0.20900
C1452       C  0.75517455  0.99082627  0.66791584    -0.20900
C1453       C  0.73151048  0.50797354  0.82818038    -0.20800
C1454       C  0.73239930  0.98808685  0.83099293    -0.20800
C1455       C  0.79592150  0.58434555  0.73272138    -0.21900
C1456       C  0.79717350  0.58334060  0.76195985    -0.21900
C1457       C  0.82337076  0.91678239  0.73651366    -0.21900
C1458       C  0.82148491  0.91642513  0.76596933    -0.21900
C1459       C  0.76301884  0.55094403  0.69594949    -0.17300
C1460       C  0.79327180  0.95242329  0.69984513    -0.17300
C1461       C  0.78584578  0.95120845  0.80264841    -0.17300
C1462       C  0.76862228  0.54724349  0.79798156    -0.17300
H1463       H  0.69643438  0.52765367  0.65097148     0.15700
H1464       H  0.73928059  0.97892029  0.65020843     0.15700
H1465       H  0.70956774  0.52017153  0.84471437     0.15700
H1466       H  0.70966548  0.97466660  0.84597721     0.15700
H1467       H  0.80860875  0.60212384  0.71949762     0.13900
H1468       H  0.81108361  0.60019528  0.77567462     0.13900
H1469       H  0.83792276  0.89951567  0.72287212     0.13900
H1470       H  0.83475689  0.89878583  0.77945296     0.13900
H1471       H  0.81920310  0.00262119  0.72755419     0.27200
H1472       H  0.81896591  0.00229848  0.77829068     0.27200
C1473       C  0.81717408  0.63728212  0.60704609     0.87500
C1474       C  0.84533568  0.61865591  0.58377569    -0.52700
C1475       C  0.81673302  0.59441502  0.57821611     0.10500
C1476       C  0.76092236  0.59144785  0.59585417     0.21400
C1477       C  0.75624433  0.64347045  0.59657563    -0.53400
C1478       C  0.72605758  0.61957754  0.59110564     0.10600
C1479       C  0.81010827  0.61738158  0.63277637    -0.53000
C1480       C  0.78090398  0.59338199  0.62672819     0.11100
H1481       H  0.88637317  0.62338023  0.57369939     0.15600
H1482       H  0.73752122  0.57177381  0.59108547     0.01400
H1483       H  0.73860151  0.66484637  0.59363629     0.15900
H1484       H  0.82909382  0.62118733  0.65343252     0.15700
N1485       N  0.39375487  0.60582517  0.50584887    -0.35600
N1486       N  0.47730990  0.60573559  0.55156407    -0.56100
N1487       N  0.56662230  0.60742140  0.50786173    -0.35600
N1488       N  0.51083224  0.60338177  0.95034423    -0.56100
C1489       C  0.36026149  0.61425292  0.52828890     0.28000
C1490       C  0.39280519  0.61579738  0.97207828     0.28000
C1491       C  0.59831449  0.59981367  0.53079215     0.28000
C1492       C  0.62827975  0.59041150  0.97162147     0.28000
C1493       C  0.42956508  0.60787202  0.56817225     0.36600
C1494       C  0.52287969  0.60432540  0.56912558     0.36600
C1495       C  0.46503342  0.60668360  0.93319424     0.36600
C1496       C  0.55752028  0.60049824  0.93312242     0.36600
C1497       C  0.30911467  0.62613643  0.51833626    -0.20900
C1498       C  0.34229947  0.62949302  0.98090339    -0.20900
C1499       C  0.65327144  0.59143191  0.52178046    -0.20800
C1500       C  0.67986664  0.57795347  0.98017659    -0.20800
C1501       C  0.44475925  0.60767569  0.59669964    -0.21900
C1502       C  0.50402022  0.60554976  0.59729634    -0.21900
C1503       C  0.48257912  0.60573117  0.90480712    -0.21900
C1504       C  0.54141490  0.60217528  0.90477194    -0.21900
C1505       C  0.37301072  0.61120592  0.55770090    -0.17300
C1506       C  0.40807147  0.61145723  0.94293067    -0.17300
C1507       C  0.61408786  0.59542233  0.94267431    -0.17300
C1508       C  0.58093624  0.60169806  0.55985758    -0.17300
H1509       H  0.27393771  0.63542247  0.53070116     0.15700
H1510       H  0.30987890  0.63954083  0.96763586     0.15700
H1511       H  0.68863626  0.58390780  0.53479091     0.15700
H1512       H  0.71470189  0.56993097  0.96672999     0.15700
H1513       H  0.41627987  0.60932143  0.61509894     0.13900
H1514       H  0.53015033  0.60494340  0.61624002     0.13900
H1515       H  0.45606575  0.60783706  0.88607975     0.13900
H1516       H  0.56900619  0.60056326  0.88604265     0.13900
H1517       H  0.43323243  0.59510117  0.50672391     0.27200
H1518       H  0.52518521  0.61603070  0.50798771     0.27200
C1519       C  0.21560590  0.92070899  0.86569704     0.87500
C1520       C  0.19085745  0.89196760  0.85832940    -0.52700
C1521       C  0.17818763  0.87524428  0.88148565     0.10500
C1522       C  0.19013799  0.88991027  0.91056639     0.21400
C1523       C  0.17143704  0.93462801  0.88559264    -0.53400
C1524       C  0.15784519  0.91942628  0.90955096     0.10600
C1525       C  0.26712518  0.91388727  0.88442676    -0.53000
C1526       C  0.25438971  0.89747063  0.90769872     0.11100
H1527       H  0.18515166  0.88514929  0.83644428     0.15600
H1528       H  0.18001744  0.87694914  0.92977296     0.01400
H1529       H  0.15362558  0.95573722  0.88126194     0.15900
H1530       H  0.31040237  0.92037453  0.87896167     0.15700
N1531       N  0.99940624  0.79367419  0.87710594    -0.35600
N1532       N  0.09266856  0.75203504  0.88084500    -0.56100
N1533       N  0.00851233  0.70871259  0.87050071    -0.35600
N1534       N  0.91591697  0.75092734  0.86225896    -0.56100
C1535       C  0.04537818  0.81084342  0.87700874     0.28000
C1536       C  0.95374240  0.80949868  0.86816178     0.28000
C1537       C  0.05910754  0.69485515  0.86536633     0.28000
C1538       C  0.96770531  0.69471538  0.85632013     0.28000
C1539       C  0.12000167  0.77484860  0.89116441     0.36600
C1540       C  0.12499716  0.72861447  0.88730282     0.36600
C1541       C  0.87938390  0.77275825  0.86835551     0.36600
C1542       C  0.88483034  0.72714990  0.86415045     0.36600
C1543       C  0.02814669  0.83780293  0.86764684    -0.20900
C1544       C  0.97088441  0.83676882  0.86171535    -0.20900
C1545       C  0.05045202  0.67243441  0.84688554    -0.20800
C1546       C  0.99250770  0.67212581  0.84150871    -0.20800
C1547       C  0.17091137  0.76595779  0.90373657    -0.21900
C1548       C  0.17394158  0.73667831  0.90146842    -0.21900
C1549       C  0.82452298  0.76298820  0.87348634    -0.21900
C1550       C  0.82800528  0.73389052  0.87090496    -0.21900
C1551       C  0.10065828  0.80354056  0.88778057    -0.17300
C1552       C  0.89565308  0.80126023  0.86940835    -0.17300
C1553       C  0.90799159  0.69967420  0.85969383    -0.17300
C1554       C  0.11138423  0.70046734  0.87924420    -0.17300
H1555       H  0.05282620  0.85686718  0.86593081     0.15700
H1556       H  0.94425089  0.85451856  0.85463416     0.15700
H1557       H  0.08234875  0.65734797  0.83877736     0.15700
H1558       H  0.97074307  0.65668190  0.82876641     0.15700
H1559       H  0.20260927  0.77916722  0.91343131     0.13900
H1560       H  0.20846860  0.72307021  0.90923874     0.13900
H1561       H  0.78635433  0.77544667  0.87897920     0.13900
H1562       H  0.79296344  0.71943575  0.87399710     0.13900
H1563       H  0.99781151  0.77316884  0.88542158     0.27200
H1564       H  0.00121095  0.72497126  0.88520178     0.27200
C1565       C  0.25934146  0.59673855  0.91109356     0.87500
C1566       C  0.22830645  0.62586754  0.90831210    -0.52700
C1567       C  0.17661124  0.62465620  0.89471644     0.10500
C1568       C  0.16110615  0.59429162  0.88533870     0.21400
C1569       C  0.21570437  0.57766623  0.92603665    -0.53400
C1570       C  0.16470811  0.57617471  0.91274956     0.10600
C1571       C  0.26459105  0.58546642  0.88062166    -0.53000
C1572       C  0.21309461  0.58424173  0.86689486     0.11100
H1573       H  0.24493839  0.64533064  0.91695750     0.15600
H1574       H  0.11907295  0.59313222  0.87449036     0.01400
H1575       H  0.22369898  0.56673049  0.94617428     0.15900
H1576       H  0.30514404  0.57807467  0.87131517     0.15700
N1577       N  0.26089946  0.50195874  0.78249579    -0.35600
N1578       N  0.27645450  0.96328746  0.74569225    -0.56100
N1579       N  0.23311910  0.50471129  0.69814088    -0.35600
N1580       N  0.24157346  0.54774242  0.74261561    -0.56100
C1581       C  0.29231331  0.98145490  0.80436618     0.28000
C1582       C  0.27205583  0.52463879  0.79893639     0.28000
C1583       C  0.27011601  0.98838287  0.68854255     0.28000
C1584       C  0.24081539  0.52909566  0.68346920     0.28000
C1585       C  0.26818507  0.94593114  0.76835679     0.36600
C1586       C  0.26174652  0.94844412  0.72247676     0.36600
C1587       C  0.23329765  0.56239022  0.76706860     0.36600
C1588       C  0.21920289  0.56395300  0.72149641     0.36600
C1589       C  0.32045103  0.98863092  0.82906771    -0.20900
C1590       C  0.30156330  0.51572044  0.82305257    -0.20900
C1591       C  0.29031557  0.99979356  0.66308948    -0.20800
C1592       C  0.26456493  0.52309714  0.65676809    -0.20800
C1593       C  0.24906599  0.91980377  0.75959932    -0.21900
C1594       C  0.24509323  0.92134476  0.73040591    -0.21900
C1595       C  0.20675159  0.58842156  0.76148318    -0.21900
C1596       C  0.19744997  0.58937252  0.73249835    -0.21900
C1597       C  0.27836969  0.95357782  0.79673152    -0.17300
C1598       C  0.25134207  0.55264609  0.79405219    -0.17300
C1599       C  0.22032398  0.55608892  0.69247830    -0.17300
C1600       C  0.26440716  0.95914112  0.69432366    -0.17300
H1601       H  0.33902354  0.97425952  0.84474188     0.15700
H1602       H  0.31523737  0.52865164  0.84062876     0.15700
H1603       H  0.30803758  0.98839242  0.64488173     0.15700
H1604       H  0.27510635  0.53812582  0.64001145     0.15700
H1605       H  0.23862874  0.90165294  0.77282526     0.13900
H1606       H  0.23044402  0.90458076  0.71678972     0.13900
H1607       H  0.19496787  0.60483711  0.77669496     0.13900
H1608       H  0.17700559  0.60675990  0.72098378     0.13900
H1609       H  0.23507519  0.50187156  0.76462716     0.27200
H1610       H  0.21210042  0.50273560  0.71778210     0.27200
C1611       C  0.13553496  0.63283973  0.60097136     0.87500
C1612       C  0.13497150  0.61455289  0.62816397    -0.52700
C1613       C  0.15651811  0.58771700  0.62415969     0.10500
C1614       C  0.17526122  0.58122116  0.59331996     0.21400
C1615       C  0.19833032  0.63163943  0.59050593    -0.53400
C1616       C  0.21945405  0.60442020  0.58669712     0.10600
C1617       C  0.10248014  0.61588639  0.57888735    -0.53000
C1618       C  0.12261414  0.58880524  0.57498861     0.11100
H1619       H  0.12155908  0.62245229  0.64899013     0.15600
H1620       H  0.19227138  0.55918756  0.59018912     0.01400
H1621       H  0.22310238  0.65046361  0.58610777     0.15900
H1622       H  0.06466174  0.62424297  0.56804222     0.15700
C1623       C  0.16356149  0.87576458  0.61965884     0.87500
C1624       C  0.12323240  0.89219657  0.59923981    -0.52700
C1625       C  0.14692505  0.91585358  0.58733388     0.10500
C1626       C  0.20874562  0.92088787  0.59698412     0.21400
C1627       C  0.21792290  0.86928607  0.60211388    -0.53400
C1628       C  0.24182176  0.89287546  0.59019998     0.10600
C1629       C  0.18146991  0.89760319  0.64158042    -0.53000
C1630       C  0.20535533  0.92118435  0.62978530     0.11100
H1631       H  0.07961115  0.88588826  0.59494515     0.15600
H1632       H  0.22823793  0.94012230  0.58742020     0.01400
H1633       H  0.23500785  0.84785449  0.59897228     0.15900
H1634       H  0.17562272  0.89478122  0.66447884     0.15700
N1635       N  0.98163208  0.71334000  0.63769580    -0.35600
N1636       N  0.89024355  0.75641531  0.64227665    -0.56100
N1637       N  0.97928938  0.79824228  0.63467065    -0.35600
N1638       N  0.07085109  0.75523513  0.63511236    -0.56100
C1639       C  0.93595940  0.69774509  0.64549877     0.28000
C1640       C  0.02930650  0.69723943  0.64268429     0.28000
C1641       C  0.93321162  0.81406175  0.64325815     0.28000
C1642       C  0.02637169  0.81366806  0.63945675     0.28000
C1643       C  0.85830838  0.73350501  0.63697892     0.36600
C1644       C  0.85723060  0.77943152  0.63565461     0.36600
C1645       C  0.10301207  0.73193654  0.62850359     0.36600
C1646       C  0.10088757  0.77779066  0.62603247     0.36600
C1647       C  0.95472321  0.67158987  0.65600070    -0.20900
C1648       C  0.01371342  0.67129924  0.65428866    -0.20900
C1649       C  0.95106261  0.83947145  0.65447109    -0.20800
C1650       C  0.00981461  0.83947640  0.65164395    -0.20800
C1651       C  0.80423798  0.74193525  0.62775642    -0.21900
C1652       C  0.80356585  0.77112482  0.62683895    -0.21900
C1653       C  0.15468581  0.73966491  0.61603476    -0.21900
C1654       C  0.15330146  0.76888144  0.61440187    -0.21900
C1655       C  0.87801852  0.70515520  0.63992252    -0.17300
C1656       C  0.08562714  0.70391873  0.63358463    -0.17300
C1657       C  0.08208512  0.80622317  0.62935515    -0.17300
C1658       C  0.87571751  0.80767645  0.63732157    -0.17300
H1659       H  0.92848437  0.65419770  0.66322832     0.15700
H1660       H  0.04183777  0.65365111  0.66004625     0.15700
H1661       H  0.92423378  0.85679465  0.66255131     0.15700
H1662       H  0.03627222  0.85699996  0.65741471     0.15700
H1663       H  0.76939779  0.72848845  0.62169882     0.13900
H1664       H  0.76799241  0.78451272  0.61987853     0.13900
H1665       H  0.18935791  0.72573786  0.60865998     0.13900
H1666       H  0.18699531  0.78202418  0.60578595     0.13900
H1667       H  0.97996773  0.73257675  0.62675323     0.27200
H1668       H  0.97819910  0.77947423  0.62316576     0.27200
C1669       C  0.13763531  0.84994699  0.63319077    -0.15400
C1670       C  0.11784351  0.82897147  0.61724063    -0.30600
H1671       H  0.13292919  0.84884790  0.65629017     0.13600
H1672       H  0.12483464  0.82930966  0.59424884     0.14200
C1673       C  0.10902756  0.66198778  0.60534554    -0.15400
C1674       C  0.12501116  0.67985600  0.62586262    -0.30600
H1675       H  0.07079214  0.66756009  0.59321970     0.13600
H1676       H  0.16335148  0.67559909  0.63827990     0.14200
C1677       C  0.22540974  0.94452014  0.64758186    -0.15400
C1678       C  0.25773725  0.93873426  0.67057372    -0.30600
H1679       H  0.20868642  0.96579628  0.64326758     0.13600
H1680       H  0.27328903  0.91701166  0.67380157     0.14200
C1681       C  0.16967281  0.56810905  0.64776277    -0.15400
C1682       C  0.19910439  0.57664602  0.67061550    -0.30600
H1683       H  0.16082653  0.54580012  0.64469244     0.13600
H1684       H  0.20821978  0.59902232  0.67312080     0.14200
C1685       C  0.25014672  0.57234113  0.81857687    -0.15400
C1686       C  0.20740679  0.57167537  0.83815814    -0.30600
H1687       H  0.28836371  0.58447695  0.82234476     0.13600
H1688       H  0.16875418  0.56007548  0.83371222     0.14200
C1689       C  0.15347478  0.67626714  0.88483735    -0.15400
C1690       C  0.13656775  0.64943290  0.89059503    -0.30600
H1691       H  0.19906350  0.68056055  0.88442200     0.13600
H1692       H  0.09113979  0.64481184  0.89132814     0.14200
C1693       C  0.22915319  0.93958308  0.84057820    -0.15400
C1694       C  0.26751667  0.93274541  0.81997969    -0.30600
H1695       H  0.20726872  0.96023495  0.83940702     0.13600
H1696       H  0.28813855  0.91181621  0.81948946     0.14200
C1697       C  0.13824170  0.82752462  0.89630928    -0.15400
C1698       C  0.15725297  0.84591085  0.87639337    -0.30600
H1699       H  0.14335331  0.83181565  0.91884628     0.13600
H1700       H  0.15150296  0.84010079  0.85417377     0.14200
C1701       C  0.27779807  0.59732905  0.57540242    -0.15400
C1702       C  0.32340611  0.61425102  0.57804285    -0.30600
H1703       H  0.28209681  0.57847689  0.56220011     0.13600
H1704       H  0.32144671  0.63242304  0.59222116     0.14200
C1705       C  0.36042889  0.61192928  0.92188400    -0.15400
C1706       C  0.31433350  0.59618675  0.92760979    -0.30600
H1707       H  0.36249054  0.62500745  0.90273373     0.13600
H1708       H  0.31595112  0.58253054  0.94644660     0.14200
C1709       C  0.85208706  0.66296004  0.61330694    -0.15400
C1710       C  0.83809848  0.68185811  0.63377428    -0.30600
H1711       H  0.89199220  0.66562964  0.60134034     0.13600
H1712       H  0.79739202  0.68064063  0.64527110     0.14200
C1713       C  0.62821991  0.60143250  0.58099769    -0.15400
C1714       C  0.66750100  0.62193035  0.57925107    -0.30600
H1715       H  0.63492933  0.58287483  0.59452880     0.13600
H1716       H  0.65786035  0.64068135  0.56631381     0.14200
C1717       C  0.76048587  0.57386483  0.67404049    -0.15400
C1718       C  0.77642830  0.56962458  0.64680812    -0.30600
H1719       H  0.74894601  0.59532881  0.68077045     0.13600
H1720       H  0.78877082  0.54869411  0.63899296     0.14200
C1721       C  0.88482553  0.65303627  0.87936419    -0.15400
C1722       C  0.86984495  0.67475719  0.86206464    -0.30600
H1723       H  0.92568030  0.65394534  0.89028897     0.13600
H1724       H  0.82791901  0.67533335  0.85216270     0.19200
C1725       C  0.70279785  0.61364446  0.92170449    -0.15400
C1726       C  0.66202900  0.59392589  0.92136555    -0.30600
H1727       H  0.69654311  0.63205057  0.93541512     0.13600
H1728       H  0.66516135  0.57604399  0.90685552     0.14200
C1729       C  0.77039411  0.56850867  0.82119295    -0.15400
C1730       C  0.79505991  0.56273882  0.84626364    -0.30600
H1731       H  0.75642421  0.59025593  0.81666234     0.13600
H1732       H  0.80988121  0.54137923  0.85169370     0.14200
C1733       C  0.33363445  0.87073939  0.57387043    -0.15400
C1734       C  0.29324649  0.89148651  0.57153464    -0.30600
H1735       H  0.33268425  0.85556355  0.59142203     0.13600
H1736       H  0.29783646  0.90784994  0.55524153     0.14200
C1737       C  0.34398636  0.90169180  0.93422043    -0.15400
C1738       C  0.29986115  0.88575954  0.92624675    -0.30600
H1739       H  0.34613248  0.92354683  0.92672903     0.13600
H1740       H  0.29765704  0.86357068  0.93237374     0.14200
C1741       C  0.75662130  0.92660902  0.65904309    -0.15400
C1742       C  0.80102106  0.93222660  0.67584816    -0.30600
H1743       H  0.71371665  0.93309257  0.66628938     0.13600
H1744       H  0.84444348  0.92540486  0.67024621     0.14200
C1745       C  0.85127173  0.85387006  0.61445842    -0.15400
C1746       C  0.83468570  0.83136426  0.63013446    -0.30600
H1747       H  0.89579544  0.85619043  0.60791307     0.13600
H1748       H  0.78968260  0.82961883  0.63617245     0.14200
C1749       C  0.67578105  0.89497245  0.56606613    -0.15400
C1750       C  0.63471675  0.87623678  0.57200812    -0.30600
H1751       H  0.67264504  0.90743207  0.54647917     0.13600
H1752       H  0.63512279  0.86439283  0.59199096     0.14200
C1753       C  0.68829034  0.90318195  0.92735577    -0.15400
C1754       C  0.64458589  0.88521465  0.92464319    -0.30600
H1755       H  0.68426054  0.92061467  0.94239677     0.13600
H1756       H  0.64703862  0.86826073  0.90902484     0.14200
C1757       C  0.80382885  0.93683447  0.85316674    -0.15400
C1758       C  0.78983803  0.92986674  0.82629927    -0.30600
H1759       H  0.81109084  0.95875700  0.85882477     0.13600
H1760       H  0.78265138  0.90772721  0.82140219     0.14200
C1761       C  0.85916215  0.84164729  0.89678652    -0.15400
C1762       C  0.85133711  0.82396398  0.87485917    -0.30600
H1763       H  0.89385146  0.83639486  0.91140030     0.13600
H1764       H  0.81675342  0.82762409  0.85985321     0.14200
loop_ 
_geom_bond_atom_site_label_1 
_geom_bond_atom_site_label_2 
_geom_bond_distance 
_geom_bond_site_symmetry_2 
_ccdc_geom_bond_type 
N1            N2   1.324       .  A
N1            N7   1.316       .  A
N1         Mn912   2.206       .  S
N2            C9   1.352       .  A
N3            N5   1.316       .  A
N3            N4   1.317       .  A
N3          Mn19   2.188   1_655  S
N4           C10   1.349       .  A
N5            N6   1.328       .  A
N5         Mn912   2.240   1_655  S
N6           C10   1.361       .  A
N7            N8   1.320       .  A
N7          Mn19   2.209       .  S
N8            C9   1.354       .  A
C9          C295   1.479       .  S
C10         C152   1.479       .  S
N11          N17   1.314       .  A
N11          N12   1.327       .  A
N11         Mn41   2.224       .  S
N12          C20   1.358       .  A
N13          N14   1.317       .  A
N13          N15   1.316       .  A
N13        Mn460   2.184   1_455  S
N14          C21   1.348       .  A
N15          N16   1.330       .  A
N15         Mn41   2.257   1_455  S
N16          C21   1.362       .  A
N17          N18   1.317       .  A
N17        Mn460   2.185       .  S
N18          C20   1.347       .  A
Mn19        N454   2.199   1_554  S
Mn19        N458   2.185   1_454  S
Mn19        Cl43   2.541       .  S
C20         C111   1.475       .  S
C21         C247   1.484       .  S
N22          N23   1.323       .  A
N22          N28   1.318       .  A
N22         Mn30   2.198   1_655  S
N23          C31   1.351       .  A
N24          N26   1.321       .  A
N24          N25   1.322       .  A
N24        Mn483   2.220   1_554  S
N25          C32   1.353       .  A
N26          N27   1.320       .  A
N26         Mn30   2.207       .  S
N27          C32   1.349       .  A
N28          N29   1.316       .  A
N28        Mn483   2.208   1_654  S
N29          C31   1.351       .  A
Mn30        N883   2.209       .  S
Mn30        N887   2.237   1_455  S
Mn30       Cl925   2.562   1_554  S
C31          C60   1.465       .  S
C32         C302   1.470       .  S
N33          N34   1.311       .  A
N33          N39   1.317       .  A
N33        Mn923   2.189   1_455  S
N34          C44   1.347       .  A
N35          N36   1.319       .  A
N35          N37   1.318       .  A
N35         Mn42   2.204       .  S
N36          C45   1.350       .  A
N37          N38   1.327       .  A
N37        Mn923   2.233       .  S
N38          C45   1.358       .  A
N39          N40   1.333       .  A
N39         Mn42   2.238   1_455  S
N40          C44   1.362       .  A
Mn41        N915   2.199   1_645  S
Mn41        N919   2.240   1_545  S
Mn41       Cl484   2.563       .  S
Mn42        N465   2.208   1_655  S
Mn42        N469   2.209       .  S
Mn42      Cl1366   2.552       .  S
Cl43       Mn912   2.559       .  S
Cl43       Mn482   2.551   1_454  S
Cl43      Mn1365   2.557   1_545  S
C44         C201   1.488       .  S
C45          C53   1.484       .  S
C46          C47   1.524       .  S
C46          C52   1.542       .  S
C46          C50   1.549       .  S
C46         C438   1.525       .  S
C47          H54   1.086       .  S
C47          C48   1.368       .  D
C48          C49   1.546       .  S
C48         C430   1.480       .  S
C49          C53   1.531       .  S
C49          C51   1.539       .  S
C49          H55   1.111       .  S
C50          H56   1.084       .  S
C50          C51   1.373       .  D
C51         C434   1.482       .  S
C52          H57   1.085       .  S
C52          C53   1.363       .  D
C58          C59   1.525       .  S
C58          C64   1.527       .  S
C58          C62   1.531       .  S
C58         C426   1.491       .  S
C59          H66   1.088       .  S
C59          C60   1.355       .  D
C60          C61   1.541       .  S
C61          C65   1.552       .  S
C61          C63   1.536       .  S
C61          H67   1.108       .  S
C62          H68   1.086       .  S
C62          C63   1.365       .  D
C63         C422   1.464       .  S
C64          H69   1.087       .  S
C64          C65   1.365       .  D
C65         C418   1.482       .  S
N70          C75   1.351   1_556  A
N70         C515   1.351       .  A
N70         H543   1.037       .  S
N71          C78   1.350       .  A
N71          C79   1.348       .  A
N72          C76   1.348       .  A
N72         C518   1.351       .  A
N72         H103   1.039       .  S
N73          C80   1.345       .  A
N73          C81   1.344       .  A
C74         N511   1.354       .  A
C74          C82   1.387       .  A
C74          C90   1.414       .  A
C75          C91   1.409       .  A
C75          C83   1.384   1_554  A
C76          C84   1.388       .  A
C76          C93   1.410       .  A
C77         N513   1.351   1_554  A
C77          C92   1.414       .  A
C77          C85   1.385       .  A
C78          C90   1.405       .  A
C78          C86   1.384       .  A
C79          C93   1.410       .  A
C79          C87   1.389       .  A
C80          C88   1.387       .  A
C80          C91   1.400       .  A
C81          C89   1.386       .  A
C81          C92   1.399       .  A
C82         C524   1.372       .  A
C82          H94   1.082       .  S
C83         C523   1.372       .  A
C83          H95   1.082   1_556  S
C84         C526   1.373       .  A
C84          H96   1.083       .  S
C85         C525   1.366   1_554  A
C85          H97   1.082       .  S
C86          C87   1.374       .  A
C86          H98   1.083       .  S
C87          H99   1.082       .  S
C88          C89   1.371       .  A
C88         H100   1.082       .  S
C89         H101   1.082       .  S
C90         C431   1.483       .  S
C91         C427   1.476       .  S
C92         C410   1.472       .  S
C93         C414   1.480       .  S
H102        N511   1.039       .  S
C104        C105   1.537       .  S
C104        C110   1.539       .  S
C104        C108   1.522       .  S
C104        C398   1.517       .  S
C105        H112   1.086       .  S
C105        C106   1.372       .  D
C106        C107   1.535       .  S
C106        C407   1.474       .  S
C107        C111   1.529       .  S
C107        C109   1.547       .  S
C107        H113   1.110       .  S
C108        H114   1.087       .  S
C108        C109   1.363       .  D
C109        C402   1.469       .  S
C110        H115   1.076       .  S
C110        C111   1.362       .  D
N116        C121   1.350       .  A
N116       C1002   1.350       .  A
N116        H148   1.041       .  S
N117        C124   1.347       .  A
N117        C125   1.347       .  A
N118        C123   1.356       .  A
N118       C1004   1.355       .  A
N118        H149   1.041       .  S
N119        C126   1.352       .  A
N119        C127   1.351       .  A
C120        N998   1.348       .  A
C120        C128   1.384       .  A
C120        C136   1.407       .  A
C121        C137   1.414       .  A
C121        C129   1.391       .  A
C122       N1000   1.354       .  A
C122        C130   1.385       .  A
C122        C139   1.414       .  A
C123        C138   1.422       .  A
C123        C131   1.388       .  A
C124        C136   1.403       .  A
C124        C132   1.386       .  A
C125        C139   1.405       .  A
C125        C133   1.387       .  A
C126        C134   1.385       .  A
C126        C137   1.412       .  A
C127        C135   1.388       .  A
C127        C138   1.414       .  A
C128       C1011   1.371   1_545  A
C128        H140   1.083       .  S
C129       C1010   1.372       .  A
C129        H141   1.079       .  S
C130       C1013   1.377   1_545  A
C130        H142   1.082       .  S
C131       C1012   1.377       .  A
C131        H143   1.082       .  S
C132        C133   1.373       .  A
C132        H144   1.082       .  S
C133        H145   1.082       .  S
C134        C135   1.378       .  A
C134        H146   1.082       .  S
C135        H147   1.082       .  S
C136        C394   1.484       .  S
C137        C419   1.484       .  S
C138        C435   1.503       .  S
C139        C406   1.489       .  S
C150        C151   1.530       .  S
C150        C156   1.530       .  S
C150        C154   1.532       .  S
C150        C386   1.503       .  S
C151        H158   1.087       .  S
C151        C152   1.360       .  D
C152        C153   1.543       .  S
C153        C157   1.531       .  S
C153        C155   1.551       .  S
C153        H159   1.111       .  S
C154        H160   1.086       .  S
C154        C155   1.370       .  D
C155        C391   1.483       .  S
C156        H161   1.087       .  S
C156        C157   1.363       .  D
C157        C395   1.457       .  S
N162        C166   1.356       .  A
N162        C608   1.356   1_554  A
N162        H194   1.038       .  S
N163        C170   1.351       .  A
N163        C171   1.353       .  A
N164        C168   1.351       .  A
N164        C610   1.351   1_554  A
N164        H195   1.037       .  S
N165        C172   1.352       .  A
N165        C173   1.347       .  A
C166        C174   1.391       .  A
C166        C182   1.423       .  A
C167        N603   1.354       .  A
C167        C183   1.413       .  A
C167        C175   1.386       .  A
C168        C176   1.390       .  A
C168        C185   1.413       .  A
C169        N605   1.356       .  A
C169        C184   1.417       .  A
C169        C177   1.385       .  A
C170        C182   1.419       .  A
C170        C178   1.388       .  A
C171        C185   1.418       .  A
C171        C179   1.384       .  A
C172        C180   1.383       .  A
C172        C183   1.407       .  A
C173        C181   1.389       .  A
C173        C184   1.415       .  A
C174        C616   1.368   1_554  A
C174        H186   1.082       .  S
C175        C615   1.368       .  A
C175        H187   1.082       .  S
C176        C618   1.368   1_554  A
C176        H188   1.083       .  S
C177        C617   1.374       .  A
C177        H189   1.082       .  S
C178        C179   1.382       .  A
C178        H190   1.082       .  S
C179        H191   1.082       .  S
C180        C181   1.372       .  A
C180        H192   1.082       .  S
C181        H193   1.082       .  S
C182        C379   1.491       .  S
C183        C382   1.492       .  S
C184        C403   1.484       .  S
C185        C390   1.494       .  S
C196        C197   1.526       .  S
C196        C202   1.527       .  S
C196        C200   1.522       .  S
C196        C370   1.495       .  S
C197        H204   1.086       .  S
C197        C198   1.365       .  D
C198        C199   1.552       .  S
C198        C375   1.473       .  S
C199        C203   1.533       .  S
C199        C201   1.548       .  S
C199        H205   1.111       .  S
C200        H206   1.087       .  S
C200        C201   1.364       .  D
C202        H207   1.087       .  S
C202        C203   1.362       .  D
C203        C415   1.457       .  S
N208        C213   1.356       .  A
N208        C212   1.352   1_655  A
N208        H240   1.040   1_655  S
N209        C216   1.350       .  A
N209        C217   1.353       .  A
N210        C215   1.352   1_455  A
N210        C214   1.356       .  A
N210        H241   1.041       .  S
N211        C218   1.352       .  A
N211        C219   1.350       .  A
C212        C220   1.387       .  A
C212        C228   1.416       .  A
C213        C229   1.417       .  A
C213        C221   1.386       .  A
C214        C222   1.383       .  A
C214        C231   1.411       .  A
C215        C230   1.411       .  A
C215        C223   1.384       .  A
C216        C228   1.413       .  A
C216        C224   1.386       .  A
C217        C231   1.413       .  A
C217        C225   1.385       .  A
C218        C226   1.385       .  A
C218        C229   1.415       .  A
C219        C227   1.386       .  A
C219        C230   1.414       .  A
C220        C221   1.363   1_455  A
C220        H232   1.083       .  S
C221        H233   1.074       .  S
C222        C223   1.365   1_455  A
C222        H234   1.082       .  S
C223        H235   1.071       .  S
C224        C225   1.381       .  A
C224        H236   1.082       .  S
C225        H237   1.082       .  S
C226        C227   1.383       .  A
C226        H238   1.082       .  S
C227        H239   1.082       .  S
C228        C374   1.488       .  S
C229        C439   1.495       .  S
C230        C399   1.489       .  S
C231        C366   1.504       .  S
C242        C243   1.535       .  S
C242        C248   1.534       .  S
C242        C246   1.535       .  S
C242        C383   1.509       .  S
C243        H250   1.084       .  S
C243        C244   1.370       .  D
C244        C245   1.553       .  S
C244        C367   1.493       .  S
C245        C249   1.542       .  S
C245        C247   1.544       .  S
C245        H251   1.111       .  S
C246        H252   1.087       .  S
C246        C247   1.358       .  D
C248        H253   1.086       .  S
C248        C249   1.372       .  D
C249        C363   1.483       .  S
N254        C259   1.352       .  A
N254       C1140   1.350   1_545  A
N254        H286   1.037       .  S
N255        C262   1.346       .  A
N255        C263   1.344       .  A
N256        C261   1.348       .  A
N256       C1142   1.350   1_545  A
N256        H287   1.040       .  S
N257        C264   1.351       .  A
N257        C265   1.351       .  A
C258       N1136   1.349       .  A
C258        C266   1.384       .  A
C258        C274   1.408       .  A
C259        C275   1.413       .  A
C259        C267   1.388       .  A
C260       N1138   1.349       .  A
C260        C268   1.385       .  A
C260        C277   1.404       .  A
C261        C276   1.410       .  A
C261        C269   1.388       .  A
C262        C274   1.398       .  A
C262        C270   1.384       .  A
C263        C277   1.403       .  A
C263        C271   1.389       .  A
C264        C272   1.385       .  A
C264        C275   1.412       .  A
C265        C273   1.387       .  A
C265        C276   1.414       .  A
C266       C1149   1.375       .  A
C266        H278   1.082       .  S
C267       C1148   1.375   1_545  A
C267        H279   1.083       .  S
C268       C1151   1.375       .  A
C268        H280   1.082       .  S
C269       C1150   1.375   1_545  A
C269        H281   1.083       .  S
C270        C271   1.373       .  A
C270        H282   1.082       .  S
C271        H283   1.082       .  S
C272        C273   1.380       .  A
C272        H284   1.082       .  S
C273        H285   1.082       .  S
C274        C371   1.477       .  S
C275        C362   1.484       .  S
C276        C359   1.492       .  S
C277        C355   1.472       .  S
C288        C289   1.534       .  S
C288        C294   1.535       .  S
C288        C292   1.539       .  S
C288        C350   1.511       .  S
C289        H296   1.086       .  S
C289        C290   1.363       .  D
C290        C291   1.539       .  S
C290        C358   1.473       .  S
C291        C295   1.538       .  S
C291        C293   1.541       .  S
C291        H297   1.112       .  S
C292        H298   1.085       .  S
C292        C293   1.376       .  D
C293        C378   1.482       .  S
C294        H299   1.087       .  S
C294        C295   1.358       .  D
C300        C301   1.539       .  S
C300        C306   1.525       .  S
C300        C304   1.527       .  S
C300        C346   1.500       .  S
C301        H308   1.086       .  S
C301        C302   1.365       .  D
C302        C303   1.534       .  S
C303        C307   1.526       .  S
C303        C305   1.533       .  S
C303        H309   1.112       .  S
C304        H310   1.085       .  S
C304        C305   1.371       .  D
C305        C411   1.463       .  S
C306        H311   1.086       .  S
C306        C307   1.362       .  D
C307        C354   1.461       .  S
N312        C317   1.353       .  A
N312        C316   1.351   1_455  A
N312        H344   1.039       .  S
N313        C320   1.349       .  A
N313        C321   1.349       .  A
N314        C319   1.349       .  A
N314        C318   1.351   1_455  A
N314        H345   1.041       .  S
N315        C322   1.349       .  A
N315        C323   1.348       .  A
C316        C324   1.387       .  A
C316        C332   1.415       .  A
C317        C333   1.417       .  A
C317        C325   1.387       .  A
C318        C326   1.384       .  A
C318        C335   1.411       .  A
C319        C334   1.414       .  A
C319        C327   1.391       .  A
C320        C332   1.405       .  A
C320        C328   1.385       .  A
C321        C335   1.407       .  A
C321        C329   1.387       .  A
C322        C330   1.385       .  A
C322        C333   1.407       .  A
C323        C331   1.386       .  A
C323        C334   1.406       .  A
C324        C325   1.377   1_655  A
C324        H336   1.083       .  S
C325        H337   1.082       .  S
C326        C327   1.373   1_655  A
C326        H338   1.083       .  S
C327        H339   1.079       .  S
C328        C329   1.372       .  A
C328        H340   1.082       .  S
C329        H341   1.082       .  S
C330        C331   1.376       .  A
C330        H342   1.082       .  S
C331        H343   1.082       .  S
C332        C387   1.483       .  S
C333        C351   1.488       .  S
C334        C347   1.476       .  S
C335        C423   1.488       .  S
C346        H348   1.087       .  S
C346        C347   1.333       .  D
C347        H349   1.087       .  S
C350        H352   1.089       .  S
C350        C351   1.343       .  D
C351        H353   1.086       .  S
C354        H356   1.086       .  S
C354        C355   1.341       .  D
C355        H357   1.088       .  S
C358        H360   1.086       .  S
C358        C359   1.351       .  D
C359        H361   1.086       .  S
C362        H364   1.086       .  S
C362        C363   1.345       .  D
C363        H365   1.086       .  S
C366        H368   1.083       .  S
C366        C367   1.358       .  D
C367        H369   1.086       .  S
C370        H372   1.089       .  S
C370        C371   1.339       .  D
C371        H373   1.086       .  S
C374        H376   1.086       .  S
C374        C375   1.346       .  D
C375        H377   1.088       .  S
C378        H380   1.087       .  S
C378        C379   1.346       .  D
C379        H381   1.086       .  S
C382        H384   1.086       .  S
C382        C383   1.343       .  D
C383        H385   1.088       .  S
C386        H388   1.088       .  S
C386        C387   1.340       .  D
C387        H389   1.086       .  S
C390        H392   1.085       .  S
C390        C391   1.350       .  D
C391        H393   1.088       .  S
C394        H396   1.087       .  S
C394        C395   1.342       .  D
C395        H397   1.085       .  S
C398        H400   1.087       .  S
C398        C399   1.340       .  D
C399        H401   1.088       .  S
C402        H404   1.089       .  S
C402        C403   1.339       .  D
C403        H405   1.084       .  S
C406        H408   1.086       .  S
C406        C407   1.341       .  D
C407        H409   1.085       .  S
C410        H412   1.085       .  S
C410        C411   1.338       .  D
C411        H413   1.087       .  S
C414        H416   1.087       .  S
C414        C415   1.343       .  D
C415        H417   1.085       .  S
C418        H420   1.088       .  S
C418        C419   1.338       .  D
C419        H421   1.083       .  S
C422        H424   1.085       .  S
C422        C423   1.342       .  D
C423        H425   1.087       .  S
C426        H428   1.088       .  S
C426        C427   1.336       .  D
C427        H429   1.086       .  S
C430        H432   1.086       .  S
C430        C431   1.345       .  D
C431        H433   1.086       .  S
C434        H436   1.085       .  S
C434        C435   1.347       .  D
C435        H437   1.086       .  S
C438        H440   1.088       .  S
C438        C439   1.347       .  D
C439        H441   1.082       .  S
N442        N443   1.326       .  A
N442        N448   1.317       .  A
N442      Mn1353   2.226   1_455  S
N443        C450   1.356       .  A
N444        N446   1.316       .  A
N444        N445   1.315       .  A
N444       Mn460   2.164       .  S
N445        C451   1.344       .  A
N446        N447   1.325       .  A
N446      Mn1353   2.238       .  S
N447        C451   1.360       .  A
N448        N449   1.319       .  A
N448       Mn460   2.196   1_455  S
N449        C450   1.351       .  A
C450        C736   1.480       .  S
C451        C593   1.472       .  S
N452        N458   1.315       .  A
N452        N453   1.323       .  A
N452       Mn482   2.205       .  S
N453        C461   1.354       .  A
N454        N455   1.318       .  A
N454        N456   1.317       .  A
N455        C462   1.351       .  A
N456        N457   1.326       .  A
N456       Mn482   2.230   1_455  S
N457        C462   1.356       .  A
N458        N459   1.317       .  A
N459        C461   1.348       .  A
Mn460      Cl484   2.538       .  S
C461        C552   1.467       .  S
C462        C688   1.476       .  S
N463        N464   1.323       .  A
N463        N469   1.318       .  A
N463       Mn471   2.204       .  S
N464        C472   1.351       .  A
N465        N467   1.321       .  A
N465        N466   1.321       .  A
N466        C473   1.350       .  A
N467        N468   1.323       .  A
N467       Mn471   2.223   1_455  S
N468        C473   1.352       .  A
N469        N470   1.318       .  A
N470        C472   1.351       .  A
Mn471      N1324   2.216   1_655  S
Mn471      N1328   2.245       .  S
Mn471     Cl1366   2.561       .  S
C472        C501   1.466       .  S
C473        C743   1.474       .  S
N474        N475   1.311       .  A
N474        N480   1.318       .  A
N474      Mn1364   2.195   1_455  S
N475        C485   1.348       .  A
N476        N477   1.321       .  A
N476        N478   1.317       .  A
N476       Mn483   2.217   1_655  S
N477        C486   1.354       .  A
N478        N479   1.324       .  A
N478      Mn1364   2.214       .  S
N479        C486   1.354       .  A
N480        N481   1.333       .  A
N480       Mn483   2.238       .  S
N481        C485   1.362       .  A
Mn482      N1356   2.205   1_645  S
Mn482      N1360   2.217   1_545  S
Mn483      Cl925   2.549       .  S
Cl484     Mn1353   2.567       .  S
Cl484      Mn924   2.550   1_545  S
C485        C642   1.491       .  S
C486        C494   1.483       .  S
C487        C488   1.525       .  S
C487        C493   1.540       .  S
C487        C491   1.545       .  S
C487        C879   1.520       .  S
C488        H495   1.085       .  S
C488        C489   1.370       .  D
C489        C490   1.547       .  S
C489        C871   1.481       .  S
C490        C494   1.537       .  S
C490        C492   1.542       .  S
C490        H496   1.111       .  S
C491        H497   1.082       .  S
C491        C492   1.367       .  D
C492        C875   1.483       .  S
C493        H498   1.086       .  S
C493        C494   1.361       .  D
C499        C500   1.528       .  S
C499        C505   1.530       .  S
C499        C503   1.534       .  S
C499        C867   1.497       .  S
C500        H507   1.087       .  S
C500        C501   1.355       .  D
C501        C502   1.542       .  S
C502        C506   1.551       .  S
C502        C504   1.536       .  S
C502        H508   1.109       .  S
C503        H509   1.086       .  S
C503        C504   1.361       .  D
C504        C863   1.464       .  S
C505        H510   1.086       .  S
C505        C506   1.370       .  D
C506        C859   1.488       .  S
N511        C516   1.352       .  A
N512        C519   1.350       .  A
N512        C520   1.348       .  A
N513        C517   1.354       .  A
N513        H544   1.036       .  S
N514        C521   1.345       .  A
N514        C522   1.347       .  A
C515        C523   1.388       .  A
C515        C531   1.412       .  A
C516        C532   1.417       .  A
C516        C524   1.388       .  A
C517        C525   1.391       .  A
C517        C534   1.419       .  A
C518        C533   1.406       .  A
C518        C526   1.385       .  A
C519        C531   1.408       .  A
C519        C527   1.384       .  A
C520        C534   1.413       .  A
C520        C528   1.389       .  A
C521        C529   1.387       .  A
C521        C532   1.402       .  A
C522        C530   1.385       .  A
C522        C533   1.401       .  A
C523        H535   1.080       .  S
C524        H536   1.082       .  S
C525        H537   1.078       .  S
C526        H538   1.082       .  S
C527        C528   1.376       .  A
C527        H539   1.082       .  S
C528        H540   1.082       .  S
C529        C530   1.373       .  A
C529        H541   1.082       .  S
C530        H542   1.082       .  S
C531        C872   1.482       .  S
C532        C868   1.478       .  S
C533        C851   1.473       .  S
C534        C855   1.481       .  S
C545        C546   1.535       .  S
C545        C551   1.539       .  S
C545        C549   1.525       .  S
C545        C839   1.514       .  S
C546        H553   1.086       .  S
C546        C547   1.368       .  D
C547        C548   1.525       .  S
C547        C848   1.462       .  S
C548        C552   1.524       .  S
C548        C550   1.533       .  S
C548        H554   1.112       .  S
C549        H555   1.085       .  S
C549        C550   1.371       .  D
C550        C843   1.468       .  S
C551        H556   1.079       .  S
C551        C552   1.362       .  D
N557        C562   1.351       .  A
N557       C1443   1.352       .  A
N557        H589   1.043       .  S
N558        C565   1.343       .  A
N558        C566   1.343       .  A
N559        C564   1.351       .  A
N559       C1445   1.352       .  A
N559        H590   1.044       .  S
N560        C567   1.353       .  A
N560        C568   1.353       .  A
C561       N1439   1.351       .  A
C561        C569   1.383       .  A
C561        C577   1.411       .  A
C562        C578   1.415       .  A
C562        C570   1.392       .  A
C563       N1441   1.351       .  A
C563        C571   1.385       .  A
C563        C580   1.410       .  A
C564        C579   1.417       .  A
C564        C572   1.389       .  A
C565        C577   1.395       .  A
C565        C573   1.385       .  A
C566        C580   1.398       .  A
C566        C574   1.388       .  A
C567        C575   1.385       .  A
C567        C578   1.415       .  A
C568        C576   1.388       .  A
C568        C579   1.420       .  A
C569       C1452   1.365   1_545  A
C569        H581   1.077       .  S
C570       C1451   1.369       .  A
C570        H582   1.078       .  S
C571       C1454   1.377   1_545  A
C571        H583   1.082       .  S
C572       C1453   1.376       .  A
C572        H584   1.082       .  S
C573        C574   1.372       .  A
C573        H585   1.082       .  S
C574        H586   1.082       .  S
C575        C576   1.383       .  A
C575        H587   1.082       .  S
C576        H588   1.082       .  S
C577        C835   1.476       .  S
C578        C860   1.490       .  S
C579        C876   1.502       .  S
C580        C847   1.476       .  S
C591        C592   1.540       .  S
C591        C597   1.544       .  S
C591        C595   1.545       .  S
C591        C827   1.527       .  S
C592        H599   1.086       .  S
C592        C593   1.365       .  D
C593        C594   1.520       .  S
C594        C598   1.518       .  S
C594        C596   1.545       .  S
C594        H600   1.112       .  S
C595        H601   1.086       .  S
C595        C596   1.376       .  D
C596        C832   1.481       .  S
C597        H602   1.076       .  S
C597        C598   1.354       .  D
C598        C836   1.457       .  S
N603        C607   1.350       .  A
N603        H635   1.038       .  S
N604        C611   1.354       .  A
N604        C612   1.351       .  A
N605        C609   1.360       .  A
N605        H636   1.035       .  S
N606        C613   1.343       .  A
N606        C614   1.343       .  A
C607        C615   1.386       .  A
C607        C623   1.408       .  A
C608        C624   1.417       .  A
C608        C616   1.385       .  A
C609        C617   1.389       .  A
C609        C626   1.425       .  A
C610        C625   1.403       .  A
C610        C618   1.385       .  A
C611        C623   1.411       .  A
C611        C619   1.382       .  A
C612        C626   1.423       .  A
C612        C620   1.392       .  A
C613        C621   1.387       .  A
C613        C624   1.399       .  A
C614        C622   1.385       .  A
C614        C625   1.398       .  A
C615        H627   1.083       .  S
C616        H628   1.082       .  S
C617        H629   1.080       .  S
C618        H630   1.083       .  S
C619        C620   1.373       .  A
C619        H631   1.082       .  S
C620        H632   1.083       .  S
C621        C622   1.371       .  A
C621        H633   1.082       .  S
C622        H634   1.082       .  S
C623        C820   1.488       .  S
C624        C823   1.480       .  S
C625        C844   1.462       .  S
C626        C831   1.493       .  S
C637        C638   1.526       .  S
C637        C643   1.528       .  S
C637        C641   1.520       .  S
C637        C811   1.493       .  S
C638        H645   1.087       .  S
C638        C639   1.365       .  D
C639        C640   1.550       .  S
C639        C816   1.474       .  S
C640        C644   1.539       .  S
C640        C642   1.553       .  S
C640        H646   1.110       .  S
C641        H647   1.087       .  S
C641        C642   1.362       .  D
C643        H648   1.086       .  S
C643        C644   1.365       .  D
C644        C856   1.465       .  S
N649        C654   1.356   1_455  A
N649        C653   1.355       .  A
N649        H681   1.036       .  S
N650        C657   1.347       .  A
N650        C658   1.350       .  A
N651        C656   1.350   1_455  A
N651        C655   1.350       .  A
N651        H682   1.043       .  S
N652        C659   1.347       .  A
N652        C660   1.349       .  A
C653        C661   1.386       .  A
C653        C669   1.419       .  A
C654        C670   1.420       .  A
C654        C662   1.387       .  A
C655        C663   1.384       .  A
C655        C672   1.404       .  A
C656        C671   1.403       .  A
C656        C664   1.384       .  A
C657        C669   1.411       .  A
C657        C665   1.387       .  A
C658        C672   1.409       .  A
C658        C666   1.386       .  A
C659        C667   1.387       .  A
C659        C670   1.410       .  A
C660        C668   1.385       .  A
C660        C671   1.409       .  A
C661        C662   1.363   1_455  A
C661        H673   1.083       .  S
C662        H674   1.076       .  S
C663        C664   1.366   1_455  A
C663        H675   1.083       .  S
C664        H676   1.074       .  S
C665        C666   1.381       .  A
C665        H677   1.082       .  S
C666        H678   1.082       .  S
C667        C668   1.382       .  A
C667        H679   1.082       .  S
C668        H680   1.082       .  S
C669        C815   1.488       .  S
C670        C880   1.486       .  S
C671        C840   1.484       .  S
C672        C807   1.492       .  S
C683        C684   1.531       .  S
C683        C689   1.533       .  S
C683        C687   1.528       .  S
C683        C824   1.497       .  S
C684        H691   1.084       .  S
C684        C685   1.363       .  D
C685        C686   1.549       .  S
C685        C808   1.481       .  S
C686        C690   1.543       .  S
C686        C688   1.546       .  S
C686        H692   1.111       .  S
C687        H693   1.087       .  S
C687        C688   1.355       .  D
C689        H694   1.086       .  S
C689        C690   1.371       .  D
C690        C804   1.483       .  S
N695        C700   1.351       .  A
N695       C1581   1.350   1_545  A
N695        H727   1.039       .  S
N696        C703   1.348       .  A
N696        C704   1.349       .  A
N697        C702   1.349       .  A
N697       C1583   1.352   1_545  A
N697        H728   1.040       .  S
N698        C705   1.351       .  A
N698        C706   1.351       .  A
C699       N1577   1.349       .  A
C699        C707   1.387       .  A
C699        C715   1.412       .  A
C700        C716   1.411       .  A
C700        C708   1.389       .  A
C701       N1579   1.352       .  A
C701        C709   1.384       .  A
C701        C718   1.408       .  A
C702        C717   1.413       .  A
C702        C710   1.388       .  A
C703        C715   1.403       .  A
C703        C711   1.385       .  A
C704        C718   1.406       .  A
C704        C712   1.387       .  A
C705        C713   1.385       .  A
C705        C716   1.412       .  A
C706        C714   1.388       .  A
C706        C717   1.415       .  A
C707       C1590   1.374       .  A
C707        H719   1.083       .  S
C708       C1589   1.375   1_545  A
C708        H720   1.082       .  S
C709       C1592   1.376       .  A
C709        H721   1.082       .  S
C710       C1591   1.375   1_545  A
C710        H722   1.083       .  S
C711        C712   1.372       .  A
C711        H723   1.082       .  S
C712        H724   1.082       .  S
C713        C714   1.381       .  A
C713        H725   1.082       .  S
C714        H726   1.082       .  S
C715        C812   1.477       .  S
C716        C803   1.484       .  S
C717        C800   1.493       .  S
C718        C796   1.487       .  S
C729        C730   1.544       .  S
C729        C735   1.534       .  S
C729        C733   1.533       .  S
C729        C791   1.514       .  S
C730        H737   1.082       .  S
C730        C731   1.364       .  D
C731        C732   1.536       .  S
C731        C799   1.471       .  S
C732        C736   1.537       .  S
C732        C734   1.543       .  S
C732        H738   1.111       .  S
C733        H739   1.086       .  S
C733        C734   1.369       .  D
C734        C819   1.478       .  S
C735        H740   1.087       .  S
C735        C736   1.362       .  D
C741        C742   1.541       .  S
C741        C747   1.532       .  S
C741        C745   1.529       .  S
C741        C787   1.510       .  S
C742        H749   1.087       .  S
C742        C743   1.366       .  D
C743        C744   1.532       .  S
C744        C748   1.534       .  S
C744        C746   1.540       .  S
C744        H750   1.111       .  S
C745        H751   1.085       .  S
C745        C746   1.370       .  D
C746        C852   1.475       .  S
C747        H752   1.087       .  S
C747        C748   1.365       .  D
C748        C795   1.472       .  S
N753        C758   1.355       .  A
N753        C757   1.355       .  A
N753        H785   1.038       .  S
N754        C761   1.350       .  A
N754        C762   1.349       .  A
N755        C760   1.353       .  A
N755        C759   1.350       .  A
N755        H786   1.043       .  S
N756        C763   1.347       .  A
N756        C764   1.349       .  A
C757        C765   1.384       .  A
C757        C773   1.416       .  A
C758        C774   1.414   1_655  A
C758        C766   1.386       .  A
C759        C767   1.387       .  A
C759        C776   1.415       .  A
C760        C775   1.410   1_655  A
C760        C768   1.387       .  A
C761        C773   1.407       .  A
C761        C769   1.384       .  A
C762        C776   1.411       .  A
C762        C770   1.388       .  A
C763        C771   1.388       .  A
C763        C774   1.408       .  A
C764        C772   1.385       .  A
C764        C775   1.406       .  A
C765        C766   1.373       .  A
C765        H777   1.075       .  S
C766        H778   1.082   1_655  S
C767        C768   1.371       .  A
C767        H779   1.082       .  S
C768        H780   1.080   1_655  S
C769        C770   1.378       .  A
C769        H781   1.082       .  S
C770        H782   1.082       .  S
C771        C772   1.377       .  A
C771        H783   1.082       .  S
C772        H784   1.082       .  S
C773        C828   1.491       .  S
C774        C792   1.480       .  S
C775        C788   1.482       .  S
C776        C864   1.491       .  S
C787        H789   1.087       .  S
C787        C788   1.340       .  D
C788        H790   1.086       .  S
C791        H793   1.088       .  S
C791        C792   1.343       .  D
C792        H794   1.080       .  S
C795        H797   1.085       .  S
C795        C796   1.343       .  D
C796        H798   1.087       .  S
C799        H801   1.085       .  S
C799        C800   1.349       .  D
C800        H802   1.086       .  S
C803        H805   1.086       .  S
C803        C804   1.346       .  D
C804        H806   1.086       .  S
C807        H809   1.083       .  S
C807        C808   1.357       .  D
C808        H810   1.086       .  S
C811        H813   1.089       .  S
C811        C812   1.338       .  D
C812        H814   1.086       .  S
C815        H817   1.085       .  S
C815        C816   1.344       .  D
C816        H818   1.088       .  S
C819        H821   1.087       .  S
C819        C820   1.349       .  D
C820        H822   1.086       .  S
C823        H825   1.086       .  S
C823        C824   1.338       .  D
C824        H826   1.088       .  S
C827        H829   1.088       .  S
C827        C828   1.350       .  D
C828        H830   1.085       .  S
C831        H833   1.088       .  S
C831        C832   1.344       .  D
C832        H834   1.083       .  S
C835        H837   1.088       .  S
C835        C836   1.336       .  D
C836        H838   1.086       .  S
C839        H841   1.087       .  S
C839        C840   1.339       .  D
C840        H842   1.088       .  S
C843        H845   1.087       .  S
C843        C844   1.334       .  D
C844        H846   1.085       .  S
C847        H849   1.087       .  S
C847        C848   1.335       .  D
C848        H850   1.086       .  S
C851        H853   1.085       .  S
C851        C852   1.341       .  D
C852        H854   1.087       .  S
C855        H857   1.087       .  S
C855        C856   1.339       .  D
C856        H858   1.086       .  S
C859        H861   1.088       .  S
C859        C860   1.344       .  D
C860        H862   1.084       .  S
C863        H865   1.085       .  S
C863        C864   1.344       .  D
C864        H866   1.087       .  S
C867        H869   1.089       .  S
C867        C868   1.336       .  D
C868        H870   1.086       .  S
C871        H873   1.086       .  S
C871        C872   1.346       .  D
C872        H874   1.086       .  S
C875        H877   1.085       .  S
C875        C876   1.353       .  D
C876        H878   1.086       .  S
C879        H881   1.088       .  S
C879        C880   1.347       .  D
C880        H882   1.081       .  S
N883        N884   1.325       .  A
N883        N889   1.315       .  A
N884        C891   1.354       .  A
N885        N887   1.313       .  A
N885        N886   1.313       .  A
N885       Mn901   2.158   1_554  S
N886        C892   1.344       .  A
N887        N888   1.327       .  A
N888        C892   1.362       .  A
N889        N890   1.319       .  A
N889       Mn901   2.207   1_454  S
N890        C891   1.353       .  A
C891       C1177   1.477       .  S
C892       C1034   1.467       .  S
N893        N899   1.316       .  A
N893        N894   1.323       .  A
N893       Mn923   2.206       .  S
N894        C902   1.354       .  A
N895        N896   1.317       .  A
N895        N897   1.317       .  A
N895      Mn1342   2.189   1_455  S
N896        C903   1.349       .  A
N897        N898   1.327       .  A
N897       Mn923   2.232   1_455  S
N898        C903   1.357       .  A
N899        N900   1.316       .  A
N899      Mn1342   2.186       .  S
N900        C902   1.346       .  A
Mn901      N1336   2.178   1_655  S
Mn901      N1340   2.182       .  S
Mn901      Cl925   2.524   1_655  S
C902        C993   1.467       .  S
C903       C1129   1.473       .  S
N904        N905   1.325       .  A
N904        N910   1.318       .  A
N904       Mn912   2.201   1_665  S
N905        C913   1.352       .  A
N906        N908   1.321       .  A
N906        N907   1.322       .  A
N906      Mn1365   2.220       .  S
N907        C914   1.354       .  A
N908        N909   1.320       .  A
N908       Mn912   2.209   1_565  S
N909        C914   1.349       .  A
N910        N911   1.317       .  A
N910      Mn1365   2.212   1_655  S
N911        C913   1.352       .  A
C913        C942   1.470       .  S
C914       C1184   1.470       .  S
N915        N916   1.313       .  A
N915        N921   1.319       .  A
N916        C926   1.349       .  A
N917        N918   1.320       .  A
N917        N919   1.320       .  A
N917       Mn924   2.208       .  S
N918        C927   1.350       .  A
N919        N920   1.327       .  A
N920        C927   1.358       .  A
N921        N922   1.330       .  A
N921       Mn924   2.228   1_455  S
N922        C926   1.358       .  A
Mn923     Cl1366   2.556       .  S
Mn924      N1347   2.225   1_655  S
Mn924      N1351   2.212       .  S
Cl925     Mn1364   2.548   1_455  S
C926       C1083   1.485       .  S
C927        C935   1.485       .  S
C928        C929   1.514       .  S
C928        C934   1.544       .  S
C928        C932   1.542       .  S
C928       C1320   1.515       .  S
C929        H936   1.086       .  S
C929        C930   1.365       .  D
C930        C931   1.546       .  S
C930       C1312   1.477       .  S
C931        C935   1.534       .  S
C931        C933   1.538       .  S
C931        H937   1.111       .  S
C932        H938   1.083       .  S
C932        C933   1.369       .  D
C933       C1316   1.473       .  S
C934        H939   1.086       .  S
C934        C935   1.366       .  D
C940        C941   1.523       .  S
C940        C946   1.528       .  S
C940        C944   1.529       .  S
C940       C1308   1.493       .  S
C941        H948   1.088       .  S
C941        C942   1.354       .  D
C942        C943   1.546       .  S
C943        C947   1.555       .  S
C943        C945   1.542       .  S
C943        H949   1.109       .  S
C944        H950   1.086       .  S
C944        C945   1.365       .  D
C945       C1304   1.472       .  S
C946        H951   1.087       .  S
C946        C947   1.367       .  D
C947       C1300   1.486       .  S
N952        C957   1.351   1_556  A
N952       C1397   1.350       .  A
N952       H1425   1.038   1_556  S
N953        C960   1.349       .  A
N953        C961   1.349       .  A
N954       C1400   1.349       .  A
N954        C958   1.352       .  A
N954        H985   1.039       .  S
N955        C962   1.345       .  A
N955        C963   1.345       .  A
C956       N1393   1.352       .  A
C956        C964   1.388       .  A
C956        C972   1.413       .  A
C957        C973   1.411       .  A
C957        C965   1.385       .  A
C958        C966   1.388       .  A
C958        C975   1.414       .  A
C959       N1395   1.349       .  A
C959        C974   1.408       .  A
C959        C967   1.382       .  A
C960        C972   1.404       .  A
C960        C968   1.384       .  A
C961        C975   1.412       .  A
C961        C969   1.389       .  A
C962        C970   1.387       .  A
C962        C973   1.399       .  A
C963        C971   1.385       .  A
C963        C974   1.397       .  A
C964       C1406   1.372       .  A
C964        H976   1.081       .  S
C965       C1405   1.374   1_554  A
C965        H977   1.083       .  S
C966       C1408   1.373       .  A
C966        H978   1.082       .  S
C967       C1407   1.368   1_554  A
C967        H979   1.083       .  S
C968        C969   1.372       .  A
C968        H980   1.083       .  S
C969        H981   1.082       .  S
C970        C971   1.372       .  A
C970        H982   1.082       .  S
C971        H983   1.082       .  S
C972       C1313   1.478       .  S
C973       C1309   1.476       .  S
C974       C1292   1.473       .  S
C975       C1296   1.487       .  S
H984       N1393   1.039       .  S
C986        C987   1.542       .  S
C986        C992   1.539       .  S
C986        C990   1.526       .  S
C986       C1280   1.521       .  S
C987        H994   1.086       .  S
C987        C988   1.373       .  D
C988        C989   1.528       .  S
C988       C1289   1.471       .  S
C989        C993   1.522       .  S
C989        C991   1.535       .  S
C989        H995   1.112       .  S
C990        H996   1.085       .  S
C990        C991   1.371       .  D
C991       C1284   1.472       .  S
C992        H997   1.079       .  S
C992        C993   1.361       .  D
N998       C1003   1.352   1_545  A
N998       H1030   1.042       .  S
N999       C1006   1.348       .  A
N999       C1007   1.347       .  A
N1000      C1005   1.351   1_545  A
N1000      H1031   1.042       .  S
N1001      C1008   1.352       .  A
N1001      C1009   1.348       .  A
C1002      C1010   1.385       .  A
C1002      C1018   1.411       .  A
C1003      C1019   1.411       .  A
C1003      C1011   1.389       .  A
C1004      C1012   1.384       .  A
C1004      C1021   1.417       .  A
C1005      C1020   1.418       .  A
C1005      C1013   1.389       .  A
C1006      C1018   1.403       .  A
C1006      C1014   1.386       .  A
C1007      C1021   1.403       .  A
C1007      C1015   1.387       .  A
C1008      C1016   1.384       .  A
C1008      C1019   1.409       .  A
C1009      C1017   1.389       .  A
C1009      C1020   1.413       .  A
C1010      H1022   1.083       .  S
C1011      H1023   1.079       .  S
C1012      H1024   1.082       .  S
C1013      H1025   1.082       .  S
C1014      C1015   1.370       .  A
C1014      H1026   1.082       .  S
C1015      H1027   1.082       .  S
C1016      C1017   1.379       .  A
C1016      H1028   1.082       .  S
C1017      H1029   1.082       .  S
C1018      C1276   1.483       .  S
C1019      C1301   1.489       .  S
C1020      C1317   1.491       .  S
C1021      C1288   1.490       .  S
C1032      C1033   1.529       .  S
C1032      C1038   1.535       .  S
C1032      C1036   1.530       .  S
C1032      C1268   1.505       .  S
C1033      H1040   1.087       .  S
C1033      C1034   1.359       .  D
C1034      C1035   1.534       .  S
C1035      C1039   1.529       .  S
C1035      C1037   1.549       .  S
C1035      H1041   1.111       .  S
C1036      H1042   1.086       .  S
C1036      C1037   1.368       .  D
C1037      C1273   1.478       .  S
C1038      H1043   1.086       .  S
C1038      C1039   1.367       .  D
C1039      C1277   1.458       .  S
N1044      C1490   1.356       .  A
N1044      C1048   1.358   1_556  A
N1044      H1076   1.038       .  S
N1045      C1052   1.351       .  A
N1045      C1053   1.350       .  A
N1046      C1492   1.356       .  A
N1046      C1050   1.354   1_556  A
N1046      H1077   1.039       .  S
N1047      C1054   1.344       .  A
N1047      C1055   1.344       .  A
C1048      C1056   1.387       .  A
C1048      C1064   1.418       .  A
C1049      N1485   1.356       .  A
C1049      C1065   1.415       .  A
C1049      C1057   1.385       .  A
C1050      C1058   1.387       .  A
C1050      C1067   1.417       .  A
C1051      N1487   1.352       .  A
C1051      C1066   1.404       .  A
C1051      C1059   1.383       .  A
C1052      C1064   1.413       .  A
C1052      C1060   1.386       .  A
C1053      C1067   1.413       .  A
C1053      C1061   1.386       .  A
C1054      C1062   1.387       .  A
C1054      C1065   1.400       .  A
C1055      C1063   1.385       .  A
C1055      C1066   1.399       .  A
C1056      C1498   1.367   1_554  A
C1056      H1068   1.082       .  S
C1057      C1497   1.364       .  A
C1057      H1069   1.082       .  S
C1058      C1500   1.368   1_554  A
C1058      H1070   1.083       .  S
C1059      C1499   1.367       .  A
C1059      H1071   1.083       .  S
C1060      C1061   1.378       .  A
C1060      H1072   1.082       .  S
C1061      H1073   1.082       .  S
C1062      C1063   1.370       .  A
C1062      H1074   1.082       .  S
C1063      H1075   1.082       .  S
C1064      C1261   1.491       .  S
C1065      C1264   1.478       .  S
C1066      C1285   1.467       .  S
C1067      C1272   1.489       .  S
C1078      C1079   1.524       .  S
C1078      C1084   1.528       .  S
C1078      C1082   1.523       .  S
C1078      C1252   1.500       .  S
C1079      H1086   1.087       .  S
C1079      C1080   1.366       .  D
C1080      C1081   1.557       .  S
C1080      C1257   1.479       .  S
C1081      C1085   1.537       .  S
C1081      C1083   1.549       .  S
C1081      H1087   1.110       .  S
C1082      H1088   1.087       .  S
C1082      C1083   1.361       .  D
C1084      H1089   1.086       .  S
C1084      C1085   1.367       .  D
C1085      C1297   1.469       .  S
N1090      C1095   1.355       .  A
N1090      C1094   1.357   1_655  A
N1090      H1122   1.036       .  S
N1091      C1098   1.349       .  A
N1091      C1099   1.351       .  A
N1092      C1097   1.350       .  A
N1092      C1096   1.351   1_655  A
N1092      H1123   1.042   1_655  S
N1093      C1100   1.348       .  A
N1093      C1101   1.352       .  A
C1094      C1102   1.385       .  A
C1094      C1110   1.418       .  A
C1095      C1111   1.422       .  A
C1095      C1103   1.389       .  A
C1096      C1104   1.384       .  A
C1096      C1113   1.406       .  A
C1097      C1112   1.406       .  A
C1097      C1105   1.385       .  A
C1098      C1110   1.412       .  A
C1098      C1106   1.386       .  A
C1099      C1113   1.411       .  A
C1099      C1107   1.386       .  A
C1100      C1108   1.387       .  A
C1100      C1111   1.414       .  A
C1101      C1109   1.385       .  A
C1101      C1112   1.413       .  A
C1102      C1103   1.359   1_455  A
C1102      H1114   1.082       .  S
C1103      H1115   1.076       .  S
C1104      C1105   1.369   1_455  A
C1104      H1116   1.083       .  S
C1105      H1117   1.075       .  S
C1106      C1107   1.381       .  A
C1106      H1118   1.082       .  S
C1107      H1119   1.082       .  S
C1108      C1109   1.383       .  A
C1108      H1120   1.082       .  S
C1109      H1121   1.082       .  S
C1110      C1256   1.494       .  S
C1111      C1321   1.486       .  S
C1112      C1281   1.491       .  S
C1113      C1248   1.495       .  S
C1124      C1125   1.533       .  S
C1124      C1130   1.526       .  S
C1124      C1128   1.527       .  S
C1124      C1265   1.494       .  S
C1125      H1132   1.083       .  S
C1125      C1126   1.365       .  D
C1126      C1127   1.550       .  S
C1126      C1249   1.485       .  S
C1127      C1131   1.545       .  S
C1127      C1129   1.546       .  S
C1127      H1133   1.111       .  S
C1128      H1134   1.087       .  S
C1128      C1129   1.357       .  D
C1130      H1135   1.085       .  S
C1130      C1131   1.369       .  D
C1131      C1245   1.482       .  S
N1136      C1141   1.351       .  A
N1136      H1168   1.041       .  S
N1137      C1144   1.349       .  A
N1137      C1145   1.349       .  A
N1138      C1143   1.347       .  A
N1138      H1169   1.042       .  S
N1139      C1146   1.348       .  A
N1139      C1147   1.348       .  A
C1140      C1148   1.386       .  A
C1140      C1156   1.412       .  A
C1141      C1157   1.412       .  A
C1141      C1149   1.389       .  A
C1142      C1150   1.386       .  A
C1142      C1159   1.408       .  A
C1143      C1158   1.409       .  A
C1143      C1151   1.388       .  A
C1144      C1156   1.404       .  A
C1144      C1152   1.384       .  A
C1145      C1159   1.410       .  A
C1145      C1153   1.389       .  A
C1146      C1154   1.385       .  A
C1146      C1157   1.407       .  A
C1147      C1155   1.387       .  A
C1147      C1158   1.410       .  A
C1148      H1160   1.083       .  S
C1149      H1161   1.082       .  S
C1150      H1162   1.082       .  S
C1151      H1163   1.083       .  S
C1152      C1153   1.372       .  A
C1152      H1164   1.082       .  S
C1153      H1165   1.082       .  S
C1154      C1155   1.380       .  A
C1154      H1166   1.082       .  S
C1155      H1167   1.082       .  S
C1156      C1253   1.482       .  S
C1157      C1244   1.478       .  S
C1158      C1241   1.488       .  S
C1159      C1237   1.482       .  S
C1170      C1171   1.533       .  S
C1170      C1176   1.532       .  S
C1170      C1174   1.537       .  S
C1170      C1232   1.508       .  S
C1171      H1178   1.086       .  S
C1171      C1172   1.363       .  D
C1172      C1173   1.539       .  S
C1172      C1240   1.471       .  S
C1173      C1177   1.537       .  S
C1173      C1175   1.546       .  S
C1173      H1179   1.111       .  S
C1174      H1180   1.085       .  S
C1174      C1175   1.375       .  D
C1175      C1260   1.484       .  S
C1176      H1181   1.087       .  S
C1176      C1177   1.357       .  D
C1182      C1183   1.538       .  S
C1182      C1188   1.526       .  S
C1182      C1186   1.529       .  S
C1182      C1228   1.501       .  S
C1183      H1190   1.087       .  S
C1183      C1184   1.362       .  D
C1184      C1185   1.535       .  S
C1185      C1189   1.534       .  S
C1185      C1187   1.535       .  S
C1185      H1191   1.111       .  S
C1186      H1192   1.086       .  S
C1186      C1187   1.369       .  D
C1187      C1293   1.465       .  S
C1188      H1193   1.087       .  S
C1188      C1189   1.364       .  D
C1189      C1236   1.469       .  S
N1194      C1199   1.354       .  A
N1194      C1198   1.352   1_455  A
N1194      H1226   1.040       .  S
N1195      C1202   1.349       .  A
N1195      C1203   1.350       .  A
N1196      C1201   1.351       .  A
N1196      C1200   1.351   1_455  A
N1196      H1227   1.042       .  S
N1197      C1204   1.347       .  A
N1197      C1205   1.346       .  A
C1198      C1206   1.387       .  A
C1198      C1214   1.416       .  A
C1199      C1215   1.415       .  A
C1199      C1207   1.386       .  A
C1200      C1208   1.384       .  A
C1200      C1217   1.412       .  A
C1201      C1216   1.411       .  A
C1201      C1209   1.388       .  A
C1202      C1214   1.407       .  A
C1202      C1210   1.385       .  A
C1203      C1217   1.413       .  A
C1203      C1211   1.388       .  A
C1204      C1212   1.385       .  A
C1204      C1215   1.401       .  A
C1205      C1213   1.387       .  A
C1205      C1216   1.403       .  A
C1206      C1207   1.375   1_655  A
C1206      H1218   1.082       .  S
C1207      H1219   1.082       .  S
C1208      C1209   1.374   1_655  A
C1208      H1220   1.082       .  S
C1209      H1221   1.079       .  S
C1210      C1211   1.376       .  A
C1210      H1222   1.082       .  S
C1211      H1223   1.081       .  S
C1212      C1213   1.376       .  A
C1212      H1224   1.082       .  S
C1213      H1225   1.082       .  S
C1214      C1269   1.489       .  S
C1215      C1233   1.484       .  S
C1216      C1229   1.475       .  S
C1217      C1305   1.495       .  S
C1228      H1230   1.086       .  S
C1228      C1229   1.335       .  D
C1229      H1231   1.087       .  S
C1232      H1234   1.089       .  S
C1232      C1233   1.340       .  D
C1233      H1235   1.086       .  S
C1236      H1238   1.085       .  S
C1236      C1237   1.344       .  D
C1237      H1239   1.087       .  S
C1240      H1242   1.086       .  S
C1240      C1241   1.349       .  D
C1241      H1243   1.085       .  S
C1244      H1246   1.086       .  S
C1244      C1245   1.345       .  D
C1245      H1247   1.086       .  S
C1248      H1250   1.083       .  S
C1248      C1249   1.356       .  D
C1249      H1251   1.086       .  S
C1252      H1254   1.089       .  S
C1252      C1253   1.340       .  D
C1253      H1255   1.086       .  S
C1256      H1258   1.086       .  S
C1256      C1257   1.345       .  D
C1257      H1259   1.088       .  S
C1260      H1262   1.087       .  S
C1260      C1261   1.346       .  D
C1261      H1263   1.086       .  S
C1264      H1266   1.087       .  S
C1264      C1265   1.337       .  D
C1265      H1267   1.088       .  S
C1268      H1270   1.088       .  S
C1268      C1269   1.341       .  D
C1269      H1271   1.086       .  S
C1272      H1274   1.086       .  S
C1272      C1273   1.345       .  D
C1273      H1275   1.088       .  S
C1276      H1278   1.087       .  S
C1276      C1277   1.338       .  D
C1277      H1279   1.086       .  S
C1280      H1282   1.086       .  S
C1280      C1281   1.341       .  D
C1281      H1283   1.088       .  S
C1284      H1286   1.086       .  S
C1284      C1285   1.337       .  D
C1285      H1287   1.085       .  S
C1288      H1290   1.087       .  S
C1288      C1289   1.337       .  D
C1289      H1291   1.086       .  S
C1292      H1294   1.086       .  S
C1292      C1293   1.339       .  D
C1293      H1295   1.087       .  S
C1296      H1298   1.086       .  S
C1296      C1297   1.343       .  D
C1297      H1299   1.085       .  S
C1300      H1302   1.088       .  S
C1300      C1301   1.341       .  D
C1301      H1303   1.083       .  S
C1304      H1306   1.084       .  S
C1304      C1305   1.348       .  D
C1305      H1307   1.086       .  S
C1308      H1310   1.088       .  S
C1308      C1309   1.335       .  D
C1309      H1311   1.087       .  S
C1312      H1314   1.086       .  S
C1312      C1313   1.345       .  D
C1313      H1315   1.087       .  S
C1316      H1318   1.085       .  S
C1316      C1317   1.345       .  D
C1317      H1319   1.086       .  S
C1320      H1322   1.088       .  S
C1320      C1321   1.346       .  D
C1321      H1323   1.082       .  S
N1324      N1325   1.325       .  A
N1324      N1330   1.317       .  A
N1325      C1332   1.354       .  A
N1326      N1328   1.316       .  A
N1326      N1327   1.317       .  A
N1326     Mn1342   2.180       .  S
N1327      C1333   1.347       .  A
N1328      N1329   1.327       .  A
N1329      C1333   1.361       .  A
N1330      N1331   1.321       .  A
N1330     Mn1342   2.210   1_455  S
N1331      C1332   1.353       .  A
C1332      C1618   1.481       .  S
C1333      C1475   1.477       .  S
N1334      N1340   1.314       .  A
N1334      N1335   1.323       .  A
N1334     Mn1364   2.201       .  S
N1335      C1343   1.355       .  A
N1336      N1337   1.316       .  A
N1336      N1338   1.315       .  A
N1337      C1344   1.349       .  A
N1338      N1339   1.325       .  A
N1338     Mn1364   2.221   1_455  S
N1339      C1344   1.355       .  A
N1340      N1341   1.315       .  A
N1341      C1343   1.348       .  A
Mn1342    Cl1366   2.540       .  S
C1343      C1434   1.464       .  S
C1344      C1570   1.468       .  S
N1345      N1346   1.327       .  A
N1345      N1351   1.318       .  A
N1345     Mn1353   2.220   1_565  S
N1346      C1354   1.355       .  A
N1347      N1349   1.321       .  A
N1347      N1348   1.323       .  A
N1348      C1355   1.353       .  A
N1349      N1350   1.323       .  A
N1349     Mn1353   2.221   1_465  S
N1350      C1355   1.353       .  A
N1351      N1352   1.319       .  A
N1352      C1354   1.352       .  A
C1354      C1383   1.478       .  S
C1355      C1625   1.479       .  S
N1356      N1357   1.312       .  A
N1356      N1362   1.318       .  A
N1357      C1367   1.350       .  A
N1358      N1359   1.319       .  A
N1358      N1360   1.318       .  A
N1358     Mn1365   2.212   1_656  S
N1359      C1368   1.352       .  A
N1360      N1361   1.325       .  A
N1361      C1368   1.355       .  A
N1362      N1363   1.336       .  A
N1362     Mn1365   2.247   1_556  S
N1363      C1367   1.363       .  A
C1367      C1524   1.503       .  S
C1368      C1376   1.478       .  S
C1369      C1370   1.528       .  S
C1369      C1375   1.533       .  S
C1369      C1373   1.534       .  S
C1369      C1761   1.505       .  S
C1370      H1377   1.085       .  S
C1370      C1371   1.373       .  D
C1371      C1372   1.548       .  S
C1371      C1753   1.482       .  S
C1372      C1376   1.538       .  S
C1372      C1374   1.540       .  S
C1372      H1378   1.111       .  S
C1373      H1379   1.086       .  S
C1373      C1374   1.366       .  D
C1374      C1757   1.475       .  S
C1375      H1380   1.087       .  S
C1375      C1376   1.358       .  D
C1381      C1382   1.530       .  S
C1381      C1387   1.527       .  S
C1381      C1385   1.534       .  S
C1381      C1749   1.499       .  S
C1382      H1389   1.087       .  S
C1382      C1383   1.355       .  D
C1383      C1384   1.546       .  S
C1384      C1388   1.551       .  S
C1384      C1386   1.537       .  S
C1384      H1390   1.108       .  S
C1385      H1391   1.086       .  S
C1385      C1386   1.365       .  D
C1386      C1745   1.467       .  S
C1387      H1392   1.087       .  S
C1387      C1388   1.367       .  D
C1388      C1741   1.480       .  S
N1393      C1398   1.352       .  A
N1394      C1401   1.352       .  A
N1394      C1402   1.351       .  A
N1395      C1399   1.352   1_554  A
N1395      H1426   1.039       .  S
N1396      C1403   1.349       .  A
N1396      C1404   1.349       .  A
C1397      C1405   1.389       .  A
C1397      C1413   1.412       .  A
C1398      C1414   1.414       .  A
C1398      C1406   1.386       .  A
C1399      C1407   1.392       .  A
C1399      C1416   1.417       .  A
C1400      C1415   1.407       .  A
C1400      C1408   1.385       .  A
C1401      C1413   1.410       .  A
C1401      C1409   1.384       .  A
C1402      C1416   1.418       .  A
C1402      C1410   1.389       .  A
C1403      C1411   1.386       .  A
C1403      C1414   1.405       .  A
C1404      C1412   1.386       .  A
C1404      C1415   1.405       .  A
C1405      H1417   1.082       .  S
C1406      H1418   1.083       .  S
C1407      H1419   1.076       .  S
C1408      H1420   1.083       .  S
C1409      C1410   1.378       .  A
C1409      H1421   1.082       .  S
C1410      H1422   1.082       .  S
C1411      C1412   1.374       .  A
C1411      H1423   1.082       .  S
C1412      H1424   1.082       .  S
C1413      C1754   1.483       .  S
C1414      C1750   1.487       .  S
C1415      C1733   1.476       .  S
C1416      C1737   1.486       .  S
C1427      C1428   1.532       .  S
C1427      C1433   1.531       .  S
C1427      C1431   1.533       .  S
C1427      C1721   1.507       .  S
C1428      H1435   1.086       .  S
C1428      C1429   1.368       .  D
C1429      C1430   1.532       .  S
C1429      C1730   1.465       .  S
C1430      C1434   1.531       .  S
C1430      C1432   1.547       .  S
C1430      H1436   1.110       .  S
C1431      H1437   1.086       .  S
C1431      C1432   1.369       .  D
C1432      C1725   1.480       .  S
C1433      H1438   1.087       .  S
C1433      C1434   1.359       .  D
N1439      C1444   1.351   1_545  A
N1439      H1471   1.040       .  S
N1440      C1447   1.347       .  A
N1440      C1448   1.346       .  A
N1441      C1446   1.350   1_545  A
N1441      H1472   1.041       .  S
N1442      C1449   1.350       .  A
N1442      C1450   1.349       .  A
C1443      C1451   1.381       .  A
C1443      C1459   1.408       .  A
C1444      C1460   1.412       .  A
C1444      C1452   1.390       .  A
C1445      C1453   1.385       .  A
C1445      C1462   1.411       .  A
C1446      C1461   1.412       .  A
C1446      C1454   1.387       .  A
C1447      C1459   1.400       .  A
C1447      C1455   1.386       .  A
C1448      C1462   1.402       .  A
C1448      C1456   1.387       .  A
C1449      C1457   1.384       .  A
C1449      C1460   1.408       .  A
C1450      C1458   1.388       .  A
C1450      C1461   1.413       .  A
C1451      H1463   1.082       .  S
C1452      H1464   1.078       .  S
C1453      H1465   1.082       .  S
C1454      H1466   1.082       .  S
C1455      C1456   1.370       .  A
C1455      H1467   1.082       .  S
C1456      H1468   1.082       .  S
C1457      C1458   1.380       .  A
C1457      H1469   1.082       .  S
C1458      H1470   1.082       .  S
C1459      C1717   1.485       .  S
C1460      C1742   1.483       .  S
C1461      C1758   1.493       .  S
C1462      C1729   1.484       .  S
C1473      C1474   1.534       .  S
C1473      C1479   1.531       .  S
C1473      C1477   1.528       .  S
C1473      C1709   1.505       .  S
C1474      H1481   1.087       .  S
C1474      C1475   1.363       .  D
C1475      C1476   1.539       .  S
C1476      C1480   1.529       .  S
C1476      C1478   1.553       .  S
C1476      H1482   1.111       .  S
C1477      H1483   1.087       .  S
C1477      C1478   1.367       .  D
C1478      C1714   1.480       .  S
C1479      H1484   1.087       .  S
C1479      C1480   1.365       .  D
C1480      C1718   1.461       .  S
N1485      C1489   1.356       .  A
N1485      H1517   1.040       .  S
N1486      C1493   1.350       .  A
N1486      C1494   1.351       .  A
N1487      C1491   1.353       .  A
N1487      H1518   1.038       .  S
N1488      C1495   1.349       .  A
N1488      C1496   1.350       .  A
C1489      C1497   1.389       .  A
C1489      C1505   1.419       .  A
C1490      C1506   1.421       .  A
C1490      C1498   1.387       .  A
C1491      C1499   1.391       .  A
C1491      C1508   1.418       .  A
C1492      C1507   1.417       .  A
C1492      C1500   1.387       .  A
C1493      C1505   1.416       .  A
C1493      C1501   1.386       .  A
C1494      C1508   1.417       .  A
C1494      C1502   1.386       .  A
C1495      C1503   1.386       .  A
C1495      C1506   1.410       .  A
C1496      C1504   1.386       .  A
C1496      C1507   1.411       .  A
C1497      H1509   1.082       .  S
C1498      H1510   1.082       .  S
C1499      H1511   1.083       .  S
C1500      H1512   1.083       .  S
C1501      C1502   1.382       .  A
C1501      H1513   1.082       .  S
C1502      H1514   1.082       .  S
C1503      C1504   1.376       .  A
C1503      H1515   1.082       .  S
C1504      H1516   1.082       .  S
C1505      C1702   1.492       .  S
C1506      C1705   1.493       .  S
C1507      C1726   1.488       .  S
C1508      C1713   1.490       .  S
C1519      C1520   1.526       .  S
C1519      C1525   1.523       .  S
C1519      C1523   1.519       .  S
C1519      C1693   1.504       .  S
C1520      H1527   1.087       .  S
C1520      C1521   1.369       .  D
C1521      C1522   1.562       .  S
C1521      C1698   1.496       .  S
C1522      C1526   1.550       .  S
C1522      C1524   1.565       .  S
C1522      H1528   1.109       .  S
C1523      H1529   1.087       .  S
C1523      C1524   1.364       .  D
C1525      H1530   1.086       .  S
C1525      C1526   1.365       .  D
C1526      C1738   1.473       .  S
N1531      C1536   1.353       .  A
N1531      C1535   1.356   1_655  A
N1531      H1563   1.040       .  S
N1532      C1539   1.356       .  A
N1532      C1540   1.355       .  A
N1533      C1538   1.352   1_455  A
N1533      C1537   1.353       .  A
N1533      H1564   1.042       .  S
N1534      C1541   1.348       .  A
N1534      C1542   1.349       .  A
C1535      C1543   1.392       .  A
C1535      C1551   1.423       .  A
C1536      C1552   1.416       .  A
C1536      C1544   1.383       .  A
C1537      C1545   1.389       .  A
C1537      C1554   1.418       .  A
C1538      C1553   1.411       .  A
C1538      C1546   1.384       .  A
C1539      C1551   1.422       .  A
C1539      C1547   1.385       .  A
C1540      C1554   1.424       .  A
C1540      C1548   1.388       .  A
C1541      C1549   1.385       .  A
C1541      C1552   1.404       .  A
C1542      C1550   1.386       .  A
C1542      C1553   1.405       .  A
C1543      C1544   1.368   1_455  A
C1543      H1555   1.079       .  S
C1544      H1556   1.082       .  S
C1545      C1546   1.376   1_455  A
C1545      H1557   1.082       .  S
C1546      H1558   1.083       .  S
C1547      C1548   1.383       .  A
C1547      H1559   1.082       .  S
C1548      H1560   1.082       .  S
C1549      C1550   1.376       .  A
C1549      H1561   1.082       .  S
C1550      H1562   1.082       .  S
C1551      C1697   1.503       .  S
C1552      C1762   1.489       .  S
C1553      C1722   1.490       .  S
C1554      C1689   1.509       .  S
C1565      C1566   1.541       .  S
C1565      C1571   1.528       .  S
C1565      C1569   1.531       .  S
C1565      C1706   1.504       .  S
C1566      H1573   1.086       .  S
C1566      C1567   1.372       .  D
C1567      C1568   1.550       .  S
C1567      C1690   1.489       .  S
C1568      C1572   1.545       .  S
C1568      C1570   1.539       .  S
C1568      H1574   1.111       .  S
C1569      H1575   1.088       .  S
C1569      C1570   1.351       .  D
C1571      H1576   1.085       .  S
C1571      C1572   1.371       .  D
C1572      C1686   1.482       .  S
N1577      C1582   1.352       .  A
N1577      H1609   1.037       .  S
N1578      C1585   1.350       .  A
N1578      C1586   1.348       .  A
N1579      C1584   1.348       .  A
N1579      H1610   1.041       .  S
N1580      C1587   1.350       .  A
N1580      C1588   1.348       .  A
C1581      C1589   1.385       .  A
C1581      C1597   1.408       .  A
C1582      C1598   1.411       .  A
C1582      C1590   1.387       .  A
C1583      C1591   1.385       .  A
C1583      C1600   1.410       .  A
C1584      C1599   1.412       .  A
C1584      C1592   1.388       .  A
C1585      C1597   1.404       .  A
C1585      C1593   1.384       .  A
C1586      C1600   1.409       .  A
C1586      C1594   1.389       .  A
C1587      C1595   1.384       .  A
C1587      C1598   1.408       .  A
C1588      C1596   1.388       .  A
C1588      C1599   1.410       .  A
C1589      H1601   1.083       .  S
C1590      H1602   1.082       .  S
C1591      H1603   1.082       .  S
C1592      H1604   1.083       .  S
C1593      C1594   1.373       .  A
C1593      H1605   1.082       .  S
C1594      H1606   1.082       .  S
C1595      C1596   1.378       .  A
C1595      H1607   1.082       .  S
C1596      H1608   1.082       .  S
C1597      C1694   1.484       .  S
C1598      C1685   1.480       .  S
C1599      C1682   1.486       .  S
C1600      C1678   1.486       .  S
C1611      C1612   1.533       .  S
C1611      C1617   1.536       .  S
C1611      C1615   1.536       .  S
C1611      C1673   1.505       .  S
C1612      H1619   1.085       .  S
C1612      C1613   1.361       .  D
C1613      C1614   1.534       .  S
C1613      C1681   1.466       .  S
C1614      C1618   1.540       .  S
C1614      C1616   1.545       .  S
C1614      H1620   1.111       .  S
C1615      H1621   1.085       .  S
C1615      C1616   1.373       .  D
C1616      C1701   1.483       .  S
C1617      H1622   1.087       .  S
C1617      C1618   1.360       .  D
C1623      C1624   1.541       .  S
C1623      C1629   1.526       .  S
C1623      C1627   1.526       .  S
C1623      C1669   1.502       .  S
C1624      H1631   1.086       .  S
C1624      C1625   1.366       .  D
C1625      C1626   1.538       .  S
C1626      C1630   1.537       .  S
C1626      C1628   1.544       .  S
C1626      H1632   1.111       .  S
C1627      H1633   1.086       .  S
C1627      C1628   1.366       .  D
C1628      C1734   1.473       .  S
C1629      H1634   1.087       .  S
C1629      C1630   1.363       .  D
C1630      C1677   1.471       .  S
N1635      C1640   1.352   1_655  A
N1635      C1639   1.351       .  A
N1635      H1667   1.038       .  S
N1636      C1643   1.350       .  A
N1636      C1644   1.351       .  A
N1637      C1642   1.351   1_655  A
N1637      C1641   1.350       .  A
N1637      H1668   1.039       .  S
N1638      C1645   1.349       .  A
N1638      C1646   1.348       .  A
C1639      C1647   1.386       .  A
C1639      C1655   1.413       .  A
C1640      C1656   1.415       .  A
C1640      C1648   1.387       .  A
C1641      C1649   1.384       .  A
C1641      C1658   1.410       .  A
C1642      C1657   1.412       .  A
C1642      C1650   1.390       .  A
C1643      C1655   1.407       .  A
C1643      C1651   1.385       .  A
C1644      C1658   1.410       .  A
C1644      C1652   1.387       .  A
C1645      C1653   1.385       .  A
C1645      C1656   1.406       .  A
C1646      C1654   1.387       .  A
C1646      C1657   1.407       .  A
C1647      C1648   1.375   1_655  A
C1647      H1659   1.083       .  S
C1648      H1660   1.081       .  S
C1649      C1650   1.373   1_655  A
C1649      H1661   1.083       .  S
C1650      H1662   1.079       .  S
C1651      C1652   1.374       .  A
C1651      H1663   1.082       .  S
C1652      H1664   1.082       .  S
C1653      C1654   1.376       .  A
C1653      H1665   1.082       .  S
C1654      H1666   1.082       .  S
C1655      C1710   1.486       .  S
C1656      C1674   1.484       .  S
C1657      C1670   1.477       .  S
C1658      C1746   1.491       .  S
C1669      H1671   1.087       .  S
C1669      C1670   1.336       .  D
C1670      H1672   1.087       .  S
C1673      H1675   1.088       .  S
C1673      C1674   1.343       .  D
C1674      H1676   1.086       .  S
C1677      H1679   1.085       .  S
C1677      C1678   1.345       .  D
C1678      H1680   1.087       .  S
C1681      H1683   1.086       .  S
C1681      C1682   1.347       .  D
C1682      H1684   1.087       .  S
C1685      H1687   1.085       .  S
C1685      C1686   1.345       .  D
C1686      H1688   1.087       .  S
C1689      H1691   1.085       .  S
C1689      C1690   1.356       .  D
C1690      H1692   1.085       .  S
C1693      H1695   1.088       .  S
C1693      C1694   1.342       .  D
C1694      H1696   1.086       .  S
C1697      H1699   1.084       .  S
C1697      C1698   1.346       .  D
C1698      H1700   1.088       .  S
C1701      H1703   1.087       .  S
C1701      C1702   1.350       .  D
C1702      H1704   1.086       .  S
C1705      H1707   1.086       .  S
C1705      C1706   1.341       .  D
C1706      H1708   1.089       .  S
C1709      H1711   1.088       .  S
C1709      C1710   1.344       .  D
C1710      H1712   1.086       .  S
C1713      H1715   1.085       .  S
C1713      C1714   1.346       .  D
C1714      H1716   1.088       .  S
C1717      H1719   1.087       .  S
C1717      C1718   1.338       .  D
C1718      H1720   1.084       .  S
C1721      H1723   1.088       .  S
C1721      C1722   1.343       .  D
C1722      H1724   1.086       .  S
C1725      H1727   1.088       .  S
C1725      C1726   1.343       .  D
C1726      H1728   1.086       .  S
C1729      H1731   1.087       .  S
C1729      C1730   1.337       .  D
C1730      H1732   1.085       .  S
C1733      H1735   1.086       .  S
C1733      C1734   1.345       .  D
C1734      H1736   1.087       .  S
C1737      H1739   1.087       .  S
C1737      C1738   1.344       .  D
C1738      H1740   1.083       .  S
C1741      H1743   1.088       .  S
C1741      C1742   1.340       .  D
C1742      H1744   1.083       .  S
C1745      H1747   1.085       .  S
C1745      C1746   1.346       .  D
C1746      H1748   1.086       .  S
C1749      H1751   1.088       .  S
C1749      C1750   1.341       .  D
C1750      H1752   1.086       .  S
C1753      H1755   1.086       .  S
C1753      C1754   1.346       .  D
C1754      H1756   1.086       .  S
C1757      H1759   1.085       .  S
C1757      C1758   1.348       .  D
C1758      H1760   1.086       .  S
C1761      H1763   1.089       .  S
C1761      C1762   1.343       .  D
C1762      H1764   1.086       .  S
