geometry optimzed in LAMMPS
_audit_creation_date              2020-12-01 
_audit_creation_method            'lammps2cif' 
_symmetry_space_group_name_H-M    'P1' 
_symmetry_Int_Tables_number       1 
_symmetry_cell_setting            triclinic 
loop_ 
_symmetry_equiv_pos_as_xyz 
  x,y,z 
_cell_length_a                    33.63312033 
_cell_length_b                    33.552880296843924 
_cell_length_c                    66.61591258648386 
_cell_angle_alpha                 90.0316396003179 
_cell_angle_beta                  89.94421259074639 
_cell_angle_gamma                 120.00793349040582 
loop_ 
_atom_site_label 
_atom_site_type_symbol 
_atom_site_fract_x 
_atom_site_fract_y 
_atom_site_fract_z 
_atom_site_charge 
O1          O  0.23229940  0.22180723  0.06270928    -0.57500
C2          C  0.31687147  0.20704940  0.10349392     0.75200
O3          O  0.32631973  0.17843694  0.03649741    -0.58600
C4          C  0.22582974  0.21720613  0.04386834     0.75100
C5          C  0.37229692  0.31906462  0.05333044     0.77500
Cd6        Cd  0.30675890  0.22259298  0.06137948     1.37500
O7          O  0.27968097  0.20199907  0.09637897    -0.57500
O8          O  0.33090018  0.30425177  0.05816848    -0.56300
C9          C  0.29645541  0.13928867  0.04320261     0.77500
O10         O  0.38447872  0.28893329  0.05183010    -0.58600
O11         O  0.35060387  0.22250894  0.09151565    -0.57100
O12         O  0.25625267  0.21471307  0.03364530    -0.57100
O13         O  0.27397320  0.13951930  0.05835716    -0.56300
O14         O  0.28894254  0.08429210  0.25407772    -0.57500
C15         C  0.23740881  0.02200694  0.30547275     0.75200
O16         O  0.39810904  0.10453602  0.29412838    -0.58600
C17         C  0.32567896  0.11345634  0.24542543     0.75100
C18         C  0.31301294  0.17135167  0.30728796     0.77500
Cd19       Cd  0.32001970  0.09596267  0.28842343     1.37500
O20         O  0.24314471  0.02527317  0.28658812    -0.57500
O21         O  0.29563332  0.15389789  0.29049034    -0.56300
C22         C  0.38383899  0.06162547  0.29495989     0.77500
O23         O  0.33792310  0.15701339  0.31516910    -0.58600
O24         O  0.26923364  0.05308010  0.31591919    -0.57100
O25         O  0.36073793  0.13420182  0.25657557    -0.57100
O26         O  0.34092619  0.03552367  0.29363772    -0.56300
O27         O  0.00018632  0.23438321  0.39435493    -0.57500
C28         C  0.08884430  0.31258197  0.43661906     0.75200
O29         O  0.13141101  0.33307786  0.36707071    -0.58600
C30         C  0.99801585  0.23003483  0.37538941     0.75100
C31         C  0.04031988  0.38150322  0.39110803     0.77500
Cd32       Cd  0.07055251  0.31259659  0.39410438     1.37500
O33         O  0.05833711  0.27674482  0.42782111    -0.57500
O34         O  0.01299828  0.33859183  0.39024139    -0.56300
C35         C  0.14872705  0.31090626  0.37510833     0.77500
O36         O  0.08247082  0.39358514  0.39263272    -0.58600
O37         O  0.10957224  0.34845103  0.42592202    -0.57100
O38         O  0.02882944  0.26350871  0.36552215    -0.57100
O39         O  0.13229178  0.29319456  0.39198715    -0.56300
O40         O  0.20544177  0.23480552  0.62202092    -0.57500
C41         C  0.18899230  0.31137015  0.57822051     0.75200
O42         O  0.17118637  0.33455536  0.64591653    -0.58600
C43         C  0.20974621  0.23454654  0.64093134     0.75100
C44         C  0.31081414  0.37664485  0.62157357     0.77500
Cd45       Cd  0.21126401  0.31125070  0.62024102     1.37500
O46         O  0.18291287  0.27504742  0.58686545    -0.57500
O47         O  0.29346400  0.33544878  0.61569408    -0.56300
C48         C  0.13100225  0.30869743  0.63906695     0.77500
O49         O  0.28215234  0.38888947  0.62691705    -0.58600
O50         O  0.20704324  0.34769780  0.58876653    -0.57100
O51         O  0.21314780  0.26896365  0.65027559    -0.57100
O52         O  0.12859080  0.28724548  0.62311363    -0.56300
O53         O  0.95835434  0.21581580  0.95523929    -0.57500
C54         C  0.87290589  0.21372893  0.91228938     0.75200
O55         O  0.83200706  0.18460162  0.98111528    -0.58600
C56         C  0.96450471  0.22139072  0.97405274     0.75100
C57         C  0.91863457  0.32343010  0.95802565     0.77500
Cd58       Cd  0.89121688  0.22765492  0.95461841     1.37500
O59         O  0.90472778  0.20971192  0.92051791    -0.57500
O60         O  0.94612742  0.30916397  0.95401941    -0.56300
C61         C  0.81653982  0.14620552  0.97222499     0.77500
O62         O  0.87704977  0.29286962  0.96100344    -0.58600
O63         O  0.85053131  0.22588671  0.92359435    -0.57100
O64         O  0.93704145  0.22996204  0.98355784    -0.57100
O65         O  0.83296314  0.14723700  0.95506100    -0.56300
O66         O  0.75141173  0.00812869  0.72973091    -0.57500
C67         C  0.77336702  0.10545671  0.77169930     0.75200
O68         O  0.79510790  0.14512233  0.70386034    -0.58600
C69         C  0.75927067  0.00829078  0.71112191     0.75100
C70         C  0.65664489  0.05228214  0.72399039     0.77500
Cd71       Cd  0.75382083  0.08328660  0.72965862     1.37500
O72         O  0.78676655  0.08127074  0.76245001    -0.57500
O73         O  0.67164362  0.02890745  0.73262984    -0.56300
C74         C  0.83423762  0.16103308  0.71205336     0.77500
O75         O  0.68687664  0.09204493  0.71798850    -0.58600
O76         O  0.74888053  0.11738620  0.76176607    -0.57100
O77         O  0.76543225  0.04327874  0.70140581    -0.57100
O78         O  0.83473315  0.14410439  0.72891786    -0.56300
O79         O  0.73181611  0.96909623  0.28369124    -0.57500
C80         C  0.65769580  0.87445273  0.24163612     0.75200
O81         O  0.64030900  0.83636200  0.31029262    -0.58600
C82         C  0.73576987  0.97080637  0.30263407     0.75100
C83         C  0.58685426  0.92207370  0.28658710     0.77500
Cd84       Cd  0.65683793  0.89529388  0.28350381     1.37500
O85         O  0.69416448  0.90213697  0.25086300    -0.57500
O86         O  0.62511623  0.94527044  0.27784484    -0.56300
C87         C  0.66311071  0.82044941  0.30167518     0.77500
O88         O  0.57900150  0.88395611  0.29403801    -0.58600
O89         O  0.62073260  0.85698854  0.25170853    -0.57100
O90         O  0.70342799  0.93832705  0.31226020    -0.57100
O91         O  0.67804731  0.83587809  0.28434220    -0.56300
O92         O  0.72894681  0.76100513  0.05767545    -0.57500
C93         C  0.65465671  0.78086595  0.09891610     0.75200
O94         O  0.64159587  0.80154904  0.02999075    -0.58600
C95         C  0.73337593  0.76301089  0.03873245     0.75100
C96         C  0.58616977  0.66050131  0.05446389     0.77500
Cd97       Cd  0.65443625  0.75823114  0.05743849     1.37500
O98         O  0.68922746  0.78173319  0.09082387    -0.57500
O99         O  0.62763333  0.67577284  0.05925319    -0.56300
C100        C  0.66409226  0.84042447  0.03857693     0.77500
O101        O  0.57475661  0.69067794  0.05096248    -0.58600
O102        O  0.61940797  0.76749872  0.08796555    -0.57100
O103        O  0.70140140  0.76289145  0.02870614    -0.57100
O104        O  0.67797560  0.84011815  0.05614648    -0.56300
O105        O  0.07011439  0.79549039  0.92130996    -0.57500
C106        C  0.00121909  0.76976231  0.97097842     0.75200
O107        O  0.08200696  0.69257068  0.96021483    -0.58600
C108        C  0.09296294  0.78123749  0.91155754     0.75100
C109        C  0.15238146  0.83789776  0.97376816     0.77500
Cd110      Cd  0.07440507  0.76179953  0.95351183     1.37500
O111        O  0.00695396  0.77260795  0.95211871    -0.57500
O112        O  0.14536999  0.83821968  0.95516406    -0.56300
C113        C  0.04000426  0.66345606  0.95706588     0.77500
O114        O  0.12674221  0.80025741  0.98271778    -0.58600
O115        O  0.03006182  0.76487043  0.98124620    -0.57100
O116        O  0.10562228  0.75685909  0.92114815    -0.57100
O117        O  0.01471155  0.67987639  0.95235278    -0.56300
O118        O  0.19097006  0.90491351  0.76076331    -0.57500
C119        C  0.21058164  0.96988660  0.71026752     0.75200
O120        O  0.28463533  0.88172896  0.72086254    -0.58600
C121        C  0.19595356  0.87448856  0.76979765     0.75100
C122        C  0.13567464  0.81747105  0.70785751     0.77500
Cd123      Cd  0.21645942  0.89373825  0.72750222     1.37500
O124        O  0.21411569  0.96706753  0.72908355    -0.57500
O125        O  0.13557255  0.83036507  0.72567118    -0.56300
C126        C  0.31500822  0.92369645  0.72329004     0.77500
O127        O  0.17451313  0.83697687  0.69918948    -0.58600
O128        O  0.20871130  0.93734748  0.69992801    -0.57100
O129        O  0.21166560  0.85377879  0.75939825    -0.57100
O130        O  0.29989595  0.95040552  0.72747422    -0.56300
O131        O  0.75830805  0.74300457  0.62058634    -0.57500
C132        C  0.77272706  0.67171821  0.57654099     0.75200
O133        O  0.79386609  0.64933136  0.64640226    -0.58600
C134        C  0.75165304  0.74236580  0.63935831     0.75100
C135        C  0.65357882  0.59344502  0.62006846     0.77500
Cd136      Cd  0.75142980  0.66595820  0.61902966     1.37500
O137        O  0.77415493  0.70556936  0.58569570    -0.57500
O138        O  0.66788945  0.63603539  0.61852125    -0.56300
C139        C  0.83330403  0.67282089  0.63848293     0.77500
O140        O  0.68465999  0.58255167  0.62123738    -0.58600
O141        O  0.76063361  0.63580547  0.58692624    -0.57100
O142        O  0.74457371  0.70641494  0.64857724    -0.57100
O143        O  0.83397358  0.68973718  0.62147770    -0.56300
O144        O  0.89777020  0.71719533  0.42412439    -0.57500
C145        C  0.97639554  0.75301623  0.37390426     0.75200
O146        O  0.88328510  0.59610825  0.38551123    -0.58600
C147        C  0.87275860  0.68048179  0.43389524     0.75100
C148        C  0.82296605  0.67896276  0.37112640     0.77500
Cd149      Cd  0.89731976  0.67646048  0.39248945     1.37500
O150        O  0.96960432  0.75243788  0.39266634    -0.57500
O151        O  0.82934451  0.68557544  0.38977829    -0.56300
C152        C  0.92201338  0.60446940  0.39230103     0.77500
O153        O  0.84830542  0.66654276  0.36223855    -0.58600
O154        O  0.94692543  0.71862569  0.36412450    -0.57100
O155        O  0.86091427  0.64306680  0.42472071    -0.57100
O156        O  0.94721093  0.64448213  0.39926902    -0.56300
C157        C  0.84470393  0.75722972  0.49190152    -0.17500
C158        C  0.82992293  0.75572569  0.51174810    -0.19600
C159        C  0.81381793  0.71551135  0.52330324     0.21000
C160        C  0.81164670  0.67613947  0.51454299    -0.02600
C161        C  0.82631178  0.67757881  0.49450738    -0.05600
C162        C  0.84354004  0.71848666  0.48318450     0.21300
C163        C  0.82412826  0.63809600  0.48590126     0.19400
C164        C  0.80697105  0.59754868  0.49720802    -0.17100
C165        C  0.79283137  0.59623694  0.51703416    -0.19300
C166        C  0.79534884  0.63538654  0.52586818     0.20900
C167        C  0.78228476  0.63443387  0.54591206    -0.32300
C168        C  0.78499914  0.67358079  0.55497871     0.01600
C169        C  0.80039696  0.71398999  0.54349003    -0.23700
C170        C  0.85940252  0.71982904  0.46343473    -0.28300
C171        C  0.85749002  0.68046470  0.45484118     0.07300
C172        C  0.83939220  0.63975790  0.46618511    -0.26900
H173        H  0.85738281  0.78883105  0.48341984     0.12000
H174        H  0.83157076  0.78623207  0.51813387     0.13100
H175        H  0.80490067  0.56689404  0.49077075     0.12200
H176        H  0.78018423  0.56463142  0.52551200     0.11500
H177        H  0.77037386  0.60310796  0.55454123     0.16900
H178        H  0.80254000  0.74434871  0.55031097     0.12800
H179        H  0.87274269  0.75120454  0.45471832     0.15600
H180        H  0.83760149  0.60923938  0.45971289     0.15400
C181        C  0.04402933  0.75335257  0.64563931    -0.17500
C182        C  0.00133550  0.73346612  0.63593082    -0.19600
C183        C  0.96041422  0.71535214  0.64706483     0.21000
C184        C  0.96250718  0.71540752  0.66820739    -0.02600
C185        C  0.00570813  0.73553206  0.67802803    -0.05600
C186        C  0.04673368  0.75555247  0.66669086     0.21300
C187        C  0.00784661  0.73746264  0.69916884     0.19400
C188        C  0.96686204  0.71756254  0.71030559    -0.17100
C189        C  0.92419900  0.69769995  0.70060693    -0.19300
C190        C  0.92158237  0.69717383  0.67956296     0.20900
C191        C  0.87902203  0.68049836  0.66972865    -0.32300
C192        C  0.87682330  0.68253913  0.64866507     0.01600
C193        C  0.91771629  0.69902118  0.63745753    -0.23700
C194        C  0.08956867  0.77938979  0.67655306    -0.28300
C195        C  0.09191399  0.78402041  0.69762697     0.07300
C196        C  0.05078787  0.76131550  0.70879526    -0.26900
H197        H  0.07503082  0.76818288  0.63664411     0.12000
H198        H  0.00040869  0.73336968  0.61967558     0.13100
H199        H  0.96782127  0.71849770  0.72656093     0.12200
H200        H  0.89323791  0.68372759  0.70960424     0.11500
H201        H  0.84792190  0.66820992  0.67852784     0.16900
H202        H  0.91650289  0.70061786  0.62123434     0.12800
H203        H  0.12084398  0.79663236  0.66775784     0.15600
H204        H  0.05200716  0.76424699  0.72501621     0.15400
C205        C  0.10564352  0.87333226  0.85130679    -0.17500
C206        C  0.12177892  0.88775451  0.83175622    -0.19600
C207        C  0.14531925  0.86925921  0.82144836     0.21000
C208        C  0.15315596  0.83633537  0.83103751    -0.02600
C209        C  0.13698998  0.82187949  0.85077126    -0.05600
C210        C  0.11291906  0.84030360  0.86092633     0.21300
C211        C  0.14497625  0.78902264  0.86032328     0.19400
C212        C  0.16913185  0.77107155  0.85017854    -0.17100
C213        C  0.18492144  0.78520172  0.83061236    -0.19300
C214        C  0.17687764  0.81755996  0.82086906     0.20900
C215        C  0.19157934  0.83093995  0.80104174    -0.32300
C216        C  0.18308479  0.86300116  0.79119512     0.01600
C217        C  0.16052986  0.88255073  0.80163003    -0.23700
C218        C  0.09716420  0.82579841  0.88058962    -0.28300
C219        C  0.10570394  0.79354837  0.89027851     0.07300
C220        C  0.12921477  0.77503247  0.87994401    -0.26900
H221        H  0.08745696  0.88803722  0.85890732     0.12000
H222        H  0.11557779  0.91316456  0.82464349     0.13100
H223        H  0.17573187  0.74600216  0.85736547     0.12200
H224        H  0.20325658  0.77061476  0.82305319     0.11500
H225        H  0.20912245  0.81587522  0.79317684     0.16900
H226        H  0.15389149  0.90734864  0.79418520     0.12800
H227        H  0.07922267  0.84039531  0.88849539     0.15600
H228        H  0.13593925  0.75018907  0.88729073     0.15400
C229        C  0.82601558  0.78588947  0.97776183    -0.17500
C230        C  0.86366320  0.78710109  0.96820232    -0.19600
C231        C  0.89433676  0.77859088  0.97910049     0.21000
C232        C  0.88692373  0.76867047  0.99982324    -0.02600
C233        C  0.84900889  0.76744407  0.00945167    -0.05600
C234        C  0.81844998  0.77614207  0.99835967     0.21300
C235        C  0.84165747  0.75741647  0.03016264     0.19400
C236        C  0.87190893  0.74824943  0.04100556    -0.17100
C237        C  0.90945582  0.74942977  0.03146391    -0.19300
C238        C  0.91730950  0.75980898  0.01095089     0.20900
C239        C  0.95490887  0.76117395  0.00137118    -0.32300
C240        C  0.96246457  0.77078777  0.98074813     0.01600
C241        C  0.93210878  0.77952317  0.96965755    -0.23700
C242        C  0.78081031  0.77478103  0.00806770    -0.28300
C243        C  0.77347350  0.76505525  0.02872406     0.07300
C244        C  0.80410306  0.75655334  0.03967900    -0.26900
H245        H  0.80278367  0.79256057  0.96903525     0.12000
H246        H  0.86876819  0.79465836  0.95229229     0.13100
H247        H  0.86655959  0.74022592  0.05687082     0.12200
H248        H  0.93241199  0.74227078  0.04014626     0.11500
H249        H  0.97801180  0.75407726  0.00998949     0.16900
H250        H  0.93773891  0.78680076  0.95373082     0.12800
H251        H  0.75727665  0.78141181  0.99954093     0.15600
H252        H  0.79844025  0.74876910  0.05556734     0.15400
C253        C  0.71239361  0.73475980  0.37287049    -0.17500
C254        C  0.68982405  0.75485471  0.36319409    -0.19600
C255        C  0.69153848  0.75931516  0.34221863     0.21000
C256        C  0.71546970  0.74238517  0.33086979    -0.02600
C257        C  0.73853326  0.72237050  0.34065327    -0.05600
C258        C  0.73734420  0.71902170  0.36176238     0.21300
C259        C  0.76409288  0.70723709  0.32936497     0.19400
C260        C  0.76517887  0.71101186  0.30836146    -0.17100
C261        C  0.74214542  0.73059074  0.29866758    -0.19300
C262        C  0.71777405  0.74694280  0.30980266     0.20900
C263        C  0.69737927  0.76951877  0.30029628    -0.32300
C264        C  0.67527987  0.78839609  0.31154110     0.01600
C265        C  0.67139517  0.78203890  0.33247223    -0.23700
C266        C  0.76263457  0.70177899  0.37146440    -0.28300
C267        C  0.78990154  0.68853917  0.36042135     0.07300
C268        C  0.78950851  0.69029393  0.33931449    -0.26900
H269        H  0.71115381  0.73243431  0.38910297     0.12000
H270        H  0.67166973  0.76763189  0.37215906     0.13100
H271        H  0.78454187  0.69956299  0.29943944     0.12200
H272        H  0.74422506  0.73384862  0.28246412     0.11500
H273        H  0.70063684  0.77430304  0.28415897     0.16900
H274        H  0.65487504  0.79686297  0.34127400     0.12800
H275        H  0.76269456  0.70063255  0.38772543     0.15600
H276        H  0.81059143  0.68047631  0.33067069     0.15400
C277        C  0.57725497  0.80401855  0.15701119    -0.17500
C278        C  0.57766166  0.81700083  0.17698598    -0.19600
C279        C  0.61769409  0.83372226  0.18856277     0.21000
C280        C  0.65802638  0.83831527  0.17982632    -0.02600
C281        C  0.65748760  0.82477858  0.15971684    -0.05600
C282        C  0.61677670  0.80723535  0.14833035     0.21300
C283        C  0.69749290  0.82837322  0.15108627     0.19400
C284        C  0.73793042  0.84643660  0.16248582    -0.17100
C285        C  0.73856424  0.86018975  0.18238016    -0.19300
C286        C  0.69872308  0.85593597  0.19123911     0.20900
C287        C  0.69865721  0.86852379  0.21134527    -0.32300
C288        C  0.65821195  0.86288916  0.22026346     0.01600
C289        C  0.61793767  0.84556382  0.20876260    -0.23700
C290        C  0.61615759  0.79288871  0.12851657    -0.28300
C291        C  0.65561710  0.79556695  0.11991866     0.07300
C292        C  0.69626240  0.81361584  0.13126382    -0.26900
H293        H  0.54583290  0.79094028  0.14841710     0.12000
H294        H  0.54655051  0.81366773  0.18342549     0.13100
H295        H  0.76901620  0.84968408  0.15604894     0.12200
H296        H  0.77013612  0.87377094  0.19090302     0.11500
H297        H  0.72979234  0.88175892  0.22018163     0.16900
H298        H  0.58680804  0.84154036  0.21552417     0.12800
H299        H  0.58481773  0.77941625  0.11981882     0.15600
H300        H  0.72698195  0.81629096  0.12466306     0.15400
C301        C  0.72299994  0.84608685  0.71009406    -0.17500
C302        C  0.72109658  0.80866385  0.69990543    -0.19600
C303        C  0.73774253  0.81371942  0.68018389     0.21000
C304        C  0.75659632  0.85697868  0.67065015    -0.02600
C305        C  0.75848236  0.89473297  0.68092646    -0.05600
C306        C  0.74151595  0.88922001  0.70072794     0.21300
C307        C  0.77707923  0.93789019  0.67132278     0.19400
C308        C  0.79429585  0.94314169  0.65171613    -0.17100
C309        C  0.79253684  0.90579403  0.64156323    -0.19300
C310        C  0.77346598  0.86252016  0.65083200     0.20900
C311        C  0.77109588  0.82477800  0.64062870    -0.32300
C312        C  0.75260852  0.78160640  0.65003770     0.01600
C313        C  0.73600936  0.77637401  0.66984236    -0.23700
C314        C  0.74289690  0.92676204  0.71072454    -0.28300
C315        C  0.76046000  0.96957981  0.70106922     0.07300
C316        C  0.77772812  0.97490508  0.68141154    -0.26900
H317        H  0.70981611  0.84124036  0.72527824     0.12000
H318        H  0.70653724  0.77570544  0.70745966     0.13100
H319        H  0.80892423  0.97612673  0.64417574     0.12200
H320        H  0.80590956  0.91070784  0.62641087     0.11500
H321        H  0.78421499  0.82917063  0.62543690     0.16900
H322        H  0.72163109  0.74318507  0.67719995     0.12800
H323        H  0.72939928  0.92238491  0.72584317     0.15600
H324        H  0.79152167  0.00787899  0.67390213     0.15400
C325        C  0.45075078  0.90170389  0.72713267    -0.17500
C326        C  0.49842094  0.91992248  0.72712716    -0.19600
C327        C  0.52831806  0.96702632  0.72365182     0.21000
C328        C  0.51001053  0.99597090  0.71982405    -0.02600
C329        C  0.46177322  0.97759265  0.71998322    -0.05600
C330        C  0.43195790  0.93022169  0.72370842     0.21300
C331        C  0.44345691  0.00675914  0.71675839     0.19400
C332        C  0.47340217  0.05373234  0.71291212    -0.17100
C333        C  0.52108066  0.07182232  0.71257987    -0.19300
C334        C  0.53987174  0.04339750  0.71622538     0.20900
C335        C  0.58786032  0.06167491  0.71683635    -0.32300
C336        C  0.60632925  0.03322849  0.72140174     0.01600
C337        C  0.57614519  0.98578449  0.72441953    -0.23700
C338        C  0.38401562  0.91236952  0.72422650    -0.28300
C339        C  0.36544515  0.94144347  0.72149030     0.07300
C340        C  0.39561799  0.98862151  0.71769506    -0.26900
H341        H  0.42855856  0.86531105  0.73003390     0.12000
H342        H  0.51193820  0.89717984  0.73005353     0.13100
H343        H  0.45993417  0.07662985  0.71031159     0.12200
H344        H  0.54330463  0.10825072  0.70975512     0.11500
H345        H  0.61072437  0.09818300  0.71443048     0.16900
H346        H  0.58991172  0.96338115  0.72769907     0.12800
H347        H  0.36125148  0.87612904  0.72728634     0.15600
H348        H  0.38178918  0.01135551  0.71547042     0.15400
C349        C  0.04704626  0.48270187  0.96182921    -0.17500
C350        C  0.06405888  0.53015312  0.96202523    -0.19600
C351        C  0.03403370  0.54766228  0.96069509     0.21000
C352        C  0.98625373  0.51699468  0.95935429    -0.02600
C353        C  0.96900737  0.46898432  0.95933711    -0.05600
C354        C  0.99968125  0.45192827  0.96045597     0.21300
C355        C  0.92123324  0.43812788  0.95808231     0.19400
C356        C  0.89120137  0.45570828  0.95680324    -0.17100
C357        C  0.90833214  0.50334403  0.95667054    -0.19300
C358        C  0.95581775  0.53429020  0.95786910     0.20900
C359        C  0.97352068  0.58217402  0.95737961    -0.32300
C360        C  0.02127156  0.61298796  0.95849532     0.01600
C361        C  0.05112776  0.59531610  0.96041397    -0.23700
C362        C  0.98259183  0.40440585  0.96012588    -0.28300
C363        C  0.93512663  0.37333563  0.95895037     0.07300
C364        C  0.90451641  0.39037848  0.95802969    -0.26900
H365        H  0.07099247  0.47005460  0.96273467     0.12000
H366        H  0.10079766  0.55320451  0.96306266     0.13100
H367        H  0.85445465  0.43261492  0.95581262     0.12200
H368        H  0.88442247  0.51599625  0.95555798     0.11500
H369        H  0.95014031  0.59544246  0.95600444     0.16900
H370        H  0.08785319  0.61869129  0.96127115     0.12800
H371        H  0.00642397  0.39156372  0.96086152     0.15600
H372        H  0.86790698  0.36659222  0.95694251     0.15400
C373        C  0.70736857  0.93456195  0.97706931    -0.17500
C374        C  0.72851565  0.97767825  0.96776474    -0.19600
C375        C  0.74295312  0.01782422  0.97913092     0.21000
C376        C  0.73537565  0.01458575  0.00003185    -0.02600
C377        C  0.71415602  0.97100406  0.00944999    -0.05600
C378        C  0.70030840  0.93083650  0.99790266     0.21300
C379        C  0.70818032  0.96775768  0.03046080     0.19400
C380        C  0.72225697  0.00797445  0.04178221    -0.17100
C381        C  0.74309961  0.05115740  0.03243162    -0.19300
C382        C  0.75040669  0.05493799  0.01160060     0.20900
C383        C  0.77420060  0.09830459  0.00225082    -0.32300
C384        C  0.78359681  0.10165705  0.98154366     0.01600
C385        C  0.76657584  0.06119101  0.97004191    -0.23700
C386        C  0.68106911  0.88781293  0.00744241    -0.28300
C387        C  0.67652617  0.88444636  0.02843274     0.07300
C388        C  0.68964883  0.92454569  0.03982334    -0.26900
H389        H  0.69717393  0.90414489  0.96799638     0.12000
H390        H  0.73427813  0.97967786  0.95169819     0.13100
H391        H  0.71782263  0.00609615  0.05792903     0.12200
H392        H  0.75435671  0.08168731  0.04156140     0.11500
H393        H  0.78749085  0.12931214  0.01123997     0.16900
H394        H  0.77360317  0.06340129  0.95406780     0.12800
H395        H  0.67183638  0.85722451  0.99862378     0.15600
H396        H  0.68652315  0.92222917  0.05603614     0.15400
C397        C  0.87556754  0.13180566  0.82952510    -0.17500
C398        C  0.89105040  0.14924638  0.84878100    -0.19600
C399        C  0.86985439  0.16917461  0.85978534     0.21000
C400        C  0.83328420  0.17244463  0.85117435    -0.02600
C401        C  0.81786811  0.15513850  0.83166018    -0.05600
C402        C  0.83884109  0.13430688  0.82088222     0.21300
C403        C  0.78137961  0.15847395  0.82299163     0.19400
C404        C  0.76076507  0.17921035  0.83387642    -0.17100
C405        C  0.77570340  0.19589598  0.85330955    -0.19300
C406        C  0.81170316  0.19237894  0.86215622     0.20900
C407        C  0.82582854  0.20742327  0.88192672    -0.32300
C408        C  0.86136209  0.20289000  0.89080024     0.01600
C409        C  0.88387132  0.18476310  0.87943284    -0.23700
C410        C  0.82301301  0.11672428  0.80158928    -0.28300
C411        C  0.78707239  0.12047917  0.79271884     0.07300
C412        C  0.76635451  0.14130302  0.80355726    -0.26900
H413        H  0.89226918  0.11622619  0.82140292     0.12000
H414        H  0.91926450  0.14661782  0.85517362     0.13100
H415        H  0.73284851  0.18223536  0.82741044     0.12200
H416        H  0.75886177  0.21126838  0.86147558     0.11500
H417        H  0.80842671  0.22158195  0.89054921     0.16900
H418        H  0.91135514  0.18127550  0.88611395     0.12800
H419        H  0.83947731  0.10112952  0.79327660     0.15600
H420        H  0.73871455  0.14440980  0.79681545     0.15400
C421        C  0.46999807  0.40513749  0.61167710    -0.17500
C422        C  0.51778221  0.43500346  0.61148259    -0.19600
C423        C  0.53668339  0.48181509  0.61636020     0.21000
C424        C  0.50671952  0.49837565  0.62147623    -0.02600
C425        C  0.45844613  0.46814189  0.62178918    -0.05600
C426        C  0.43996787  0.42133526  0.61679859     0.21300
C427        C  0.42871570  0.48489764  0.62701390     0.19400
C428        C  0.44748174  0.53158965  0.63188345    -0.17100
C429        C  0.49503464  0.56145680  0.63143792    -0.19300
C430        C  0.52491363  0.54525887  0.62622024     0.20900
C431        C  0.57261564  0.57532036  0.62564826    -0.32300
C432        C  0.60313198  0.55950821  0.62071078     0.01600
C433        C  0.58478755  0.51239465  0.61616595    -0.23700
C434        C  0.39188894  0.39174048  0.61689986    -0.28300
C435        C  0.36179415  0.40820701  0.62197145     0.07300
C436        C  0.38079348  0.45491033  0.62714835    -0.26900
H437        H  0.45651017  0.36928477  0.60778819     0.12000
H438        H  0.53996875  0.42145786  0.60746005     0.13100
H439        H  0.42531546  0.54513444  0.63594573     0.12200
H440        H  0.50847833  0.59738039  0.63517380     0.11500
H441        H  0.58610584  0.61134305  0.62924331     0.16900
H442        H  0.60777173  0.49975585  0.61219459     0.12800
H443        H  0.37789823  0.35583929  0.61294467     0.15600
H444        H  0.35824409  0.46809764  0.63109144     0.15400
C445        C  0.04537636  0.27667446  0.70243522    -0.17500
C446        C  0.00352670  0.25456290  0.71276779    -0.19600
C447        C  0.96182885  0.23765971  0.70239926     0.21000
C448        C  0.96236474  0.24375552  0.68142460    -0.02600
C449        C  0.00467160  0.26516602  0.67090889    -0.05600
C450        C  0.04634631  0.28157018  0.68148944     0.21300
C451        C  0.00514259  0.26826595  0.64977124     0.19400
C452        C  0.96340731  0.25210467  0.63945502    -0.17100
C453        C  0.92159858  0.23186349  0.64990950    -0.19300
C454        C  0.92059752  0.22673712  0.67085347     0.20900
C455        C  0.87860114  0.20297787  0.68125701    -0.32300
C456        C  0.87776229  0.19464153  0.70200092     0.01600
C457        C  0.91964660  0.21312128  0.71251794    -0.23700
C458        C  0.08807078  0.30021966  0.67090414    -0.28300
C459        C  0.08865831  0.30039761  0.64980513     0.07300
C460        C  0.04706228  0.28533039  0.63933181    -0.26900
H461        H  0.07699301  0.28878146  0.71078531     0.12000
H462        H  0.00376809  0.25009579  0.72886667     0.13100
H463        H  0.96302111  0.25433130  0.62324035     0.12200
H464        H  0.88991043  0.21899419  0.64152876     0.11500
H465        H  0.84661237  0.18850991  0.67298426     0.16900
H466        H  0.91947830  0.20681378  0.72848907     0.12800
H467        H  0.11975548  0.31117293  0.67906397     0.15600
H468        H  0.04715037  0.28528743  0.62305647     0.15400
C469        C  0.21183977  0.11871834  0.71345273    -0.17500
C470        C  0.21240000  0.15602164  0.70369352    -0.19600
C471        C  0.21248065  0.15821836  0.68262779     0.21000
C472        C  0.21262245  0.12273464  0.67130841    -0.02600
C473        C  0.21187377  0.08504145  0.68114664    -0.05600
C474        C  0.21130849  0.08286753  0.70232521     0.21300
C475        C  0.21143346  0.04940687  0.66973619     0.19400
C476        C  0.21260014  0.05203832  0.64871411    -0.17100
C477        C  0.21355910  0.08939433  0.63899481    -0.19300
C478        C  0.21307172  0.12463233  0.65013318     0.20900
C479        C  0.21240870  0.16135257  0.64040803    -0.32300
C480        C  0.21121356  0.19637650  0.65150818     0.01600
C481        C  0.21188859  0.19488732  0.67265473    -0.23700
C482        C  0.21035633  0.04498480  0.71193152    -0.28300
C483        C  0.20976289  0.00925443  0.70055783     0.07300
C484        C  0.21004095  0.01178263  0.67948530    -0.26900
H485        H  0.21159200  0.11780292  0.72970768     0.12000
H486        H  0.21247504  0.18304665  0.71264183     0.13100
H487        H  0.21260125  0.02506018  0.63975964     0.12200
H488        H  0.21419772  0.09047963  0.62274156     0.11500
H489        H  0.21251405  0.16247676  0.62414765     0.16900
H490        H  0.21141190  0.22196147  0.68135797     0.12800
H491        H  0.21026190  0.04340822  0.72818121     0.15600
H492        H  0.20978653  0.98460868  0.67056970     0.15400
C493        C  0.06003658  0.53548683  0.40659421    -0.17500
C494        C  0.04298107  0.56596182  0.40703651    -0.19600
C495        C  0.99918245  0.55272683  0.39941561     0.21000
C496        C  0.97233451  0.50839482  0.39116978    -0.02600
C497        C  0.98947309  0.47740703  0.39085906    -0.05600
C498        C  0.03357199  0.49104471  0.39859459     0.21300
C499        C  0.96247108  0.43281656  0.38285398     0.19400
C500        C  0.91901560  0.41998885  0.37486236    -0.17100
C501        C  0.90226241  0.45080915  0.37498484    -0.19300
C502        C  0.92843941  0.49503753  0.38324638     0.20900
C503        C  0.91164686  0.52611923  0.38370990    -0.32300
C504        C  0.93824277  0.57041530  0.39204592     0.01600
C505        C  0.98196510  0.58318311  0.39986547    -0.23700
C506        C  0.05037500  0.46003532  0.39826474    -0.28300
C507        C  0.02340351  0.41512448  0.39061249     0.07300
C508        C  0.97934210  0.40187367  0.38300301    -0.26900
H509        H  0.09394712  0.54666574  0.41258656     0.12000
H510        H  0.06413547  0.59999164  0.41335286     0.13100
H511        H  0.89789276  0.38600190  0.36850866     0.12200
H512        H  0.86864536  0.43990918  0.36870870     0.11500
H513        H  0.87807250  0.51591293  0.37754251     0.16900
H514        H  0.00297209  0.61718465  0.40624756     0.12800
H515        H  0.08412092  0.47056697  0.40431340     0.15600
H516        H  0.95824042  0.36746116  0.37703757     0.15400
C517        C  0.08491364  0.22841986  0.49828162    -0.17500
C518        C  0.10023068  0.22815838  0.51779553    -0.19600
C519        C  0.12994646  0.26961537  0.52761744     0.21000
C520        C  0.14398328  0.31180120  0.51771777    -0.02600
C521        C  0.12873737  0.31205716  0.49796172    -0.05600
C522        C  0.09919541  0.27014463  0.48818161     0.21300
C523        C  0.14346506  0.35422949  0.48793957     0.19400
C524        C  0.17246805  0.39571616  0.49789001    -0.17100
C525        C  0.18720544  0.39547255  0.51751108    -0.19300
C526        C  0.17339826  0.35372361  0.52750945     0.20900
C527        C  0.18838996  0.35322512  0.54713585    -0.32300
C528        C  0.17472809  0.31134991  0.55711944     0.01600
C529        C  0.14568085  0.26965661  0.54717661    -0.23700
C530        C  0.08508165  0.27063001  0.46837415    -0.28300
C531        C  0.10067147  0.31246716  0.45806923     0.07300
C532        C  0.12951582  0.35414668  0.46805777    -0.26900
H533        H  0.06218667  0.19592966  0.49101824     0.12000
H534        H  0.08889042  0.19545248  0.52519706     0.13100
H535        H  0.18397073  0.42841639  0.49045290     0.12200
H536        H  0.20965465  0.42797289  0.52482847     0.11500
H537        H  0.21067480  0.38551053  0.55466236     0.16900
H538        H  0.13461860  0.23722372  0.55479659     0.12800
H539        H  0.06297099  0.23836775  0.46079519     0.15600
H540        H  0.14154217  0.38657288  0.46027968     0.15400
C541        C  0.81290993  0.04699757  0.36580813    -0.17500
C542        C  0.84986768  0.08257035  0.37612922    -0.19600
C543        C  0.88771951  0.11683166  0.36558302     0.21000
C544        C  0.88861161  0.11461897  0.34441588    -0.02600
C545        C  0.85122703  0.07877894  0.33398702    -0.05600
C546        C  0.81312494  0.04503807  0.34476131     0.21300
C547        C  0.85174913  0.07705859  0.31279688     0.19400
C548        C  0.89006799  0.11066508  0.30227427    -0.17100
C549        C  0.92713876  0.14608176  0.31260259    -0.19300
C550        C  0.92648653  0.14865164  0.33362983     0.20900
C551        C  0.96255159  0.18527882  0.34399298    -0.32300
C552        C  0.96130284  0.18877225  0.36502991     0.01600
C553        C  0.92415124  0.15380478  0.37577003    -0.23700
C554        C  0.77578149  0.01005838  0.33432615    -0.28300
C555        C  0.77571827  0.00828761  0.31321209     0.07300
C556        C  0.81390887  0.04192055  0.30252991    -0.26900
H557        H  0.78393582  0.02120253  0.37429709     0.12000
H558        H  0.84860673  0.08356107  0.39236219     0.13100
H559        H  0.89122450  0.10977385  0.28603368     0.12200
H560        H  0.95610628  0.17186649  0.30410745     0.11500
H561        H  0.99121710  0.21172920  0.33557413     0.16900
H562        H  0.92299515  0.15597831  0.39197467     0.12800
H563        H  0.74654757  0.98426832  0.34270184     0.15600
H564        H  0.81425323  0.04067869  0.28627127     0.15400
C565        C  0.52851677  0.06860831  0.27552033    -0.17500
C566        C  0.55514747  0.04763475  0.27322421    -0.19600
C567        C  0.54058258  0.00392134  0.28137321     0.21000
C568        C  0.49855402  0.98076422  0.29180218    -0.02600
C569        C  0.47108990  0.00163536  0.29377115    -0.05600
C570        C  0.48641144  0.04592948  0.28570149     0.21300
C571        C  0.42817735  0.97805420  0.30353420     0.19400
C572        C  0.41380711  0.93429559  0.31176162    -0.17100
C573        C  0.44156168  0.91406599  0.31022054    -0.19300
C574        C  0.48399185  0.93685747  0.30016101     0.20900
C575        C  0.51227269  0.91690396  0.29835436    -0.32300
C576        C  0.55457208  0.94027541  0.28804343     0.01600
C577        C  0.56779639  0.98342145  0.27939745    -0.23700
C578        C  0.45890653  0.06636451  0.28740778    -0.28300
C579        C  0.41522323  0.04244944  0.29627252     0.07300
C580        C  0.40017012  0.99831715  0.30445979    -0.26900
H581        H  0.54065701  0.10244332  0.26911921     0.12000
H582        H  0.58738811  0.06580565  0.26515859     0.13100
H583        H  0.38102044  0.91564950  0.31937847     0.12200
H584        H  0.42964179  0.88039920  0.31676765     0.11500
H585        H  0.50160226  0.88360627  0.30504812     0.16900
H586        H  0.60007530  0.00181217  0.27135994     0.12800
H587        H  0.47049779  0.09999519  0.28086009     0.15600
H588        H  0.36647417  0.97959326  0.31132556     0.15400
C589        C  0.21816490  0.28853294  0.31350030    -0.17500
C590        C  0.24115307  0.26853921  0.30401563    -0.19600
C591        C  0.26252452  0.24924904  0.31535970     0.21000
C592        C  0.26229253  0.25176844  0.33648019    -0.02600
C593        C  0.23863985  0.27161060  0.34608326    -0.05600
C594        C  0.21581087  0.28940229  0.33452979     0.21300
C595        C  0.23607429  0.27170276  0.36720640     0.19400
C596        C  0.25908503  0.25412634  0.37854616    -0.17100
C597        C  0.28282368  0.23489320  0.36905213    -0.19300
C598        C  0.28383075  0.23257122  0.34801579     0.20900
C599        C  0.30388879  0.20941860  0.33835287    -0.32300
C600        C  0.30166101  0.20424556  0.31731206     0.01600
C601        C  0.28211203  0.22557646  0.30595879    -0.23700
C602        C  0.18923472  0.30562927  0.34415404    -0.28300
C603        C  0.18414533  0.30316853  0.36518308     0.07300
C604        C  0.20884030  0.28733761  0.37658789    -0.26900
H605        H  0.20106263  0.30213453  0.30435261     0.12000
H606        H  0.24123372  0.26715309  0.28776883     0.13100
H607        H  0.25777408  0.25420752  0.39479486     0.12200
H608        H  0.29927517  0.22059403  0.37819868     0.11500
H609        H  0.31853327  0.19292878  0.34727215     0.16900
H610        H  0.28032776  0.22202034  0.28976049     0.12800
H611        H  0.17024897  0.31746363  0.33520672     0.15600
H612        H  0.20540700  0.28546826  0.39279122     0.15400
C613        C  0.09126820  0.87312080  0.30204468    -0.17500
C614        C  0.05583345  0.83465415  0.31171169    -0.19600
C615        C  0.05403081  0.83191753  0.33276333     0.21000
C616        C  0.08831077  0.86821602  0.34419128    -0.02600
C617        C  0.12397578  0.90703864  0.33444443    -0.05600
C618        C  0.12558220  0.90948403  0.31326463     0.21300
C619        C  0.15819709  0.94324421  0.34592756     0.19400
C620        C  0.15663620  0.94040978  0.36694883    -0.17100
C621        C  0.12138540  0.90195814  0.37659091    -0.19300
C622        C  0.08694389  0.86581143  0.36537136     0.20900
C623        C  0.05084087  0.82766840  0.37499131    -0.32300
C624        C  0.01596560  0.79185456  0.36373425     0.01600
C625        C  0.01824931  0.79386912  0.34260511    -0.23700
C626        C  0.16194263  0.94779344  0.30372539    -0.28300
C627        C  0.19668862  0.98350763  0.31515283     0.07300
C628        C  0.19396911  0.98127230  0.33622637    -0.26900
H629        H  0.09193208  0.87434005  0.28579151     0.12000
H630        H  0.02975264  0.80705673  0.30270986     0.13100
H631        H  0.18283795  0.96790342  0.37595393     0.12200
H632        H  0.12093776  0.90059459  0.39284146     0.11500
H633        H  0.04957071  0.82615910  0.39124845     0.16900
H634        H  0.99161534  0.76627225  0.33379060     0.12800
H635        H  0.16372499  0.94931885  0.28747759     0.15600
H636        H  0.22047111  0.00868285  0.34517216     0.15400
C637        C  0.55947820  0.50163662  0.05107566    -0.17500
C638        C  0.52992445  0.45393638  0.05019102    -0.19600
C639        C  0.48215028  0.43541425  0.04973527     0.21000
C640        C  0.46411711  0.46549472  0.04979747    -0.02600
C641        C  0.49399724  0.51372728  0.05064391    -0.05600
C642        C  0.54185806  0.53177461  0.05144848     0.21300
C643        C  0.47596183  0.54380490  0.05096787     0.19400
C644        C  0.42818489  0.52526726  0.05031462    -0.17100
C645        C  0.39861459  0.47754691  0.04953686    -0.19300
C646        C  0.41621592  0.44739436  0.04943756     0.20900
C647        C  0.38671500  0.39949805  0.04962960    -0.32300
C648        C  0.40426940  0.36916641  0.05036520     0.01600
C649        C  0.45212507  0.38743794  0.04985924    -0.23700
C650        C  0.57129165  0.57959114  0.05272372    -0.28300
C651        C  0.55379907  0.61001720  0.05300282     0.07300
C652        C  0.50596620  0.59176435  0.05204672    -0.26900
H653        H  0.59619914  0.51496905  0.05161768     0.12000
H654        H  0.54445390  0.43149103  0.05013579     0.13100
H655        H  0.41363408  0.54768928  0.05055222     0.12200
H656        H  0.36187331  0.46418353  0.04925808     0.11500
H657        H  0.34990083  0.38583019  0.04981666     0.16900
H658        H  0.46600006  0.36443161  0.05039078     0.12800
H659        H  0.60806179  0.59317620  0.05339879     0.15600
H660        H  0.49210941  0.61479810  0.05236522     0.15400
C661        C  0.28380647  0.04763179  0.98273837    -0.17500
C662        C  0.26388083  0.00490791  0.97298742    -0.19600
C663        C  0.23765398  0.96390035  0.98378599     0.21000
C664        C  0.23288524  0.96593715  0.00474266    -0.02600
C665        C  0.25286103  0.00909244  0.01457890    -0.05600
C666        C  0.27788015  0.05020307  0.00347192     0.21300
C667        C  0.24612058  0.01110934  0.03536998     0.19400
C668        C  0.22110912  0.97011628  0.04628558    -0.17100
C669        C  0.20145748  0.92745670  0.03656825    -0.19300
C670        C  0.20641079  0.92499303  0.01575762     0.20900
C671        C  0.18338304  0.88255375  0.00566050    -0.32300
C672        C  0.18557950  0.88046923  0.98461474     0.01600
C673        C  0.21415932  0.92119371  0.97387162    -0.23700
C674        C  0.29481949  0.09303637  0.01313984    -0.28300
C675        C  0.28619221  0.09516356  0.03367199     0.07300
C676        C  0.26278931  0.05401756  0.04474629    -0.26900
H677        H  0.30295159  0.07874964  0.97395743     0.12000
H678        H  0.26804109  0.00401461  0.95689673     0.13100
H679        H  0.21579856  0.97107532  0.06227961     0.12200
H680        H  0.18133942  0.89640137  0.04527062     0.11500
H681        H  0.16132270  0.85153891  0.01407833     0.16900
H682        H  0.21613433  0.92003071  0.95765970     0.12800
H683        H  0.31249769  0.12454989  0.00448002     0.15600
H684        H  0.25616484  0.05535530  0.06059121     0.15400
C685        C  0.40618959  0.21518668  0.16444544    -0.17500
C686        C  0.40756548  0.20135904  0.18418977    -0.19600
C687        C  0.36721293  0.16830399  0.19380957     0.21000
C688        C  0.32531553  0.14820983  0.18318531    -0.02600
C689        C  0.32381522  0.16262688  0.16338129    -0.05600
C690        C  0.36439061  0.19652758  0.15398564     0.21300
C691        C  0.28151294  0.14363519  0.15313467     0.19400
C692        C  0.24152288  0.10917089  0.16236437    -0.17100
C693        C  0.24308963  0.09458735  0.18184582    -0.19300
C694        C  0.28459118  0.11446393  0.19250530     0.20900
C695        C  0.28567731  0.10212310  0.21251875    -0.32300
C696        C  0.32674620  0.12347003  0.22361099     0.01600
C697        C  0.36768854  0.15589101  0.21399352    -0.23700
C698        C  0.36223462  0.21126713  0.13440071    -0.28300
C699        C  0.31981773  0.19328573  0.12435817     0.07300
C700        C  0.27973554  0.15949543  0.13387645    -0.26900
H701        H  0.43776364  0.24104668  0.15746695     0.12000
H702        H  0.44012786  0.21695930  0.19202593     0.13100
H703        H  0.20888783  0.09384800  0.15459552     0.12200
H704        H  0.21158024  0.06837875  0.18873894     0.11500
H705        H  0.25401936  0.07690409  0.21968193     0.16900
H706        H  0.39961790  0.17226430  0.22233149     0.12800
H707        H  0.39336041  0.23703243  0.12707697     0.15600
H708        H  0.24711645  0.14479631  0.12609447     0.15400
C709        C  0.08692421  0.23294551  0.04592066    -0.17500
C710        C  0.05052195  0.23362063  0.03607099    -0.19600
C711        C  0.04395545  0.22509117  0.01536063     0.21000
C712        C  0.07415215  0.21545483  0.00446957    -0.02600
C713        C  0.11094989  0.21487636  0.01440324    -0.05600
C714        C  0.11744314  0.22377046  0.03522387     0.21300
C715        C  0.14144387  0.20578870  0.00344925     0.19400
C716        C  0.13465737  0.19685435  0.98277756    -0.17100
C717        C  0.09813603  0.19728232  0.97295580    -0.19300
C718        C  0.06784706  0.20679563  0.98363210     0.20900
C719        C  0.03169109  0.20826035  0.97379422    -0.32300
C720        C  0.00181431  0.21845215  0.98450462     0.01600
C721        C  0.00800421  0.22645360  0.00532258    -0.23700
C722        C  0.15454775  0.22375706  0.04492549    -0.28300
C723        C  0.18543930  0.21533063  0.03401739     0.07300
C724        C  0.17842028  0.20615742  0.01330478    -0.26900
H725        H  0.09135117  0.23984610  0.06189145     0.12000
H726        H  0.02759374  0.24104309  0.04465497     0.13100
H727        H  0.15775898  0.18972690  0.97416743     0.12200
H728        H  0.09376986  0.19048225  0.95697647     0.11500
H729        H  0.02707773  0.20187753  0.95778230     0.16900
H730        H  0.98506588  0.23419831  0.01372765     0.12800
H731        H  0.15974259  0.23094181  0.06086811     0.15600
H732        H  0.20195690  0.19950600  0.00476517     0.15400
loop_ 
_geom_bond_atom_site_label_1 
_geom_bond_atom_site_label_2 
_geom_bond_distance 
_geom_bond_site_symmetry_2 
_ccdc_geom_bond_type 
O1            C4   1.270       .  A
O1           Cd6   2.493       .  S
C2           O11   1.266       .  A
C2            O7   1.268       .  A
C2          C699   1.484       .  S
O3            C9   1.270       .  A
O3           Cd6   2.519       .  S
C4           O12   1.266       .  A
C4          C723   1.482       .  S
C5           O10   1.270       .  A
C5            O8   1.264       .  A
C5          C648   1.488       .  S
Cd6          O13   2.440       .  S
Cd6          O12   2.434       .  S
Cd6          O11   2.493       .  S
Cd6           O7   2.472       .  S
Cd6          O10   2.524       .  S
Cd6           O8   2.447       .  S
C9           O13   1.263       .  A
C9          C675   1.484       .  S
O14          C17   1.267       .  A
O14         Cd19   2.465       .  S
C15          O24   1.265       .  A
C15          O20   1.269       .  A
C15         C627   1.480   1_545  S
O16          C22   1.271       .  A
O16         Cd19   2.524       .  S
C17          O25   1.268       .  A
C17         C696   1.488       .  S
C18          O23   1.270       .  A
C18          O21   1.263       .  A
C18         C600   1.493       .  S
Cd19         O26   2.481       .  S
Cd19         O25   2.503       .  S
Cd19         O24   2.425       .  S
Cd19         O20   2.488       .  S
Cd19         O23   2.549       .  S
Cd19         O21   2.463       .  S
C22          O26   1.262       .  A
C22         C579   1.488       .  S
O27          C30   1.270   1_455  A
O27         Cd32   2.505       .  S
C28          O37   1.266       .  A
C28          O33   1.268       .  A
C28         C531   1.484       .  S
O29          C35   1.270       .  A
O29         Cd32   2.548       .  S
C30          O38   1.266   1_655  A
C30         C552   1.486       .  S
C31          O36   1.269       .  A
C31          O34   1.264       .  A
C31         C507   1.496       .  S
Cd32         O39   2.471       .  S
Cd32         O38   2.449       .  S
Cd32         O37   2.467       .  S
Cd32         O33   2.483       .  S
Cd32         O36   2.543       .  S
Cd32         O34   2.503       .  S
C35          O39   1.263       .  A
C35         C603   1.494       .  S
O40          C43   1.269       .  A
O40         Cd45   2.476       .  S
C41          O50   1.268       .  A
C41          O46   1.269       .  A
C41         C528   1.486       .  S
O42          C48   1.271       .  A
O42         Cd45   2.530       .  S
C43          O51   1.265       .  A
C43         C480   1.484       .  S
C44          O49   1.273       .  A
C44          O47   1.264       .  A
C44         C435   1.499       .  S
Cd45         O52   2.485       .  S
Cd45         O51   2.473       .  S
Cd45         O50   2.468       .  S
Cd45         O46   2.484       .  S
Cd45         O49   2.541       .  S
Cd45         O47   2.479       .  S
C48          O52   1.263       .  A
C48         C459   1.490       .  S
O53          C56   1.269       .  A
O53         Cd58   2.481       .  S
C54          O63   1.267       .  A
C54          O59   1.269       .  A
C54         C408   1.480       .  S
O55          C61   1.269       .  A
O55         Cd58   2.507       .  S
C56          O64   1.265       .  A
C56         C720   1.481   1_655  S
C57          O62   1.270       .  A
C57          O60   1.264       .  A
C57         C363   1.479       .  S
Cd58         O65   2.415       .  S
Cd58         O64   2.446       .  S
Cd58         O63   2.464       .  S
Cd58         O59   2.449       .  S
Cd58         O62   2.497       .  S
Cd58         O60   2.417       .  S
C61          O65   1.262       .  A
C61         C384   1.480       .  S
O66          C69   1.267       .  A
O66         Cd71   2.482       .  S
C67          O76   1.268       .  A
C67          O72   1.267       .  A
C67         C411   1.482       .  S
O68          C74   1.270       .  A
O68         Cd71   2.511       .  S
C69          O77   1.264       .  A
C69         C315   1.479   1_545  S
C70          O75   1.271       .  A
C70          O73   1.264       .  A
C70         C336   1.490       .  S
Cd71         O78   2.453       .  S
Cd71         O77   2.453       .  S
Cd71         O76   2.469       .  S
Cd71         O72   2.467       .  S
Cd71         O75   2.535       .  S
Cd71         O73   2.442       .  S
C74          O78   1.263       .  A
C74         C456   1.487       .  S
O79          C82   1.267       .  A
O79         Cd84   2.499       .  S
C80          O89   1.269       .  A
C80          O85   1.267       .  A
C80         C288   1.478       .  S
O81          C87   1.269       .  A
O81         Cd84   2.511       .  S
C82          O90   1.263       .  A
C82         C555   1.481   1_565  S
C83          O88   1.271       .  A
C83          O86   1.264       .  A
C83         C576   1.491       .  S
Cd84         O91   2.431       .  S
Cd84         O90   2.439       .  S
Cd84         O89   2.460       .  S
Cd84         O85   2.462       .  S
Cd84         O88   2.548       .  S
Cd84         O86   2.426       .  S
C87          O91   1.262       .  A
C87         C264   1.482       .  S
O92          C95   1.268       .  A
O92         Cd97   2.461       .  S
C93         O102   1.268       .  A
C93          O98   1.268       .  A
C93         C291   1.478       .  S
O94         C100   1.270       .  A
O94         Cd97   2.505       .  S
C95         O103   1.265       .  A
C95         C243   1.474       .  S
C96         O101   1.271       .  A
C96          O99   1.263       .  A
C96         C651   1.490       .  S
Cd97        O104   2.451       .  S
Cd97        O103   2.435       .  S
Cd97        O102   2.446       .  S
Cd97         O98   2.453       .  S
Cd97        O101   2.536       .  S
Cd97         O99   2.447       .  S
C100        O104   1.262       .  A
C100        C387   1.482       .  S
O105        C108   1.268       .  A
O105       Cd110   2.463       .  S
C106        O115   1.264       .  A
C106        O111   1.267       .  A
C106        C240   1.472   1_455  S
O107        C113   1.270       .  A
O107       Cd110   2.501       .  S
C108        O116   1.268       .  A
C108        C219   1.479       .  S
C109        O114   1.267       .  A
C109        O112   1.263       .  A
C109        C672   1.488       .  S
Cd110       O117   2.464       .  S
Cd110       O116   2.439       .  S
Cd110       O115   2.408       .  S
Cd110       O111   2.472       .  S
Cd110       O114   2.506       .  S
Cd110       O112   2.482       .  S
C113        O117   1.263       .  A
C113        C360   1.485       .  S
O118        C121   1.267       .  A
O118       Cd123   2.470       .  S
C119        O128   1.265       .  A
C119        O124   1.267       .  A
C119        C483   1.484   1_565  S
O120        C126   1.270       .  A
O120       Cd123   2.557       .  S
C121        O129   1.268       .  A
C121        C216   1.483       .  S
C122        O127   1.270       .  A
C122        O125   1.263       .  A
C122        C195   1.496       .  S
Cd123       O130   2.481       .  S
Cd123       O129   2.475       .  S
Cd123       O128   2.443       .  S
Cd123       O124   2.503       .  S
Cd123       O127   2.547       .  S
Cd123       O125   2.480       .  S
C126        O130   1.263       .  A
C126        C339   1.495       .  S
O131        C134   1.268       .  A
O131       Cd136   2.480       .  S
C132        O141   1.267       .  A
C132        O137   1.268       .  A
C132        C168   1.487       .  S
O133        C139   1.270       .  A
O133       Cd136   2.545       .  S
C134        O142   1.266       .  A
C134        C312   1.482       .  S
C135        O140   1.271       .  A
C135        O138   1.264       .  A
C135        C432   1.498       .  S
Cd136       O143   2.481       .  S
Cd136       O142   2.466       .  S
Cd136       O141   2.450       .  S
Cd136       O137   2.503       .  S
Cd136       O140   2.571       .  S
Cd136       O138   2.466       .  S
C139        O143   1.262       .  A
C139        C192   1.494       .  S
O144        C147   1.270       .  A
O144       Cd149   2.507       .  S
C145        O154   1.263       .  A
C145        O150   1.269       .  A
C145        C624   1.481   1_655  S
O146        C152   1.271       .  A
O146       Cd149   2.536       .  S
C147        O155   1.268       .  A
C147        C171   1.486       .  S
C148        O153   1.267       .  A
C148        O151   1.262       .  A
C148        C267   1.486       .  S
Cd149       O156   2.444       .  S
Cd149       O155   2.447       .  S
Cd149       O154   2.448       .  S
Cd149       O150   2.492       .  S
Cd149       O153   2.519       .  S
Cd149       O151   2.460       .  S
C152        O156   1.264       .  A
C152        C504   1.493       .  S
C157        C158   1.404       .  A
C157        C162   1.406       .  A
C157        H173   1.083       .  S
C158        C159   1.406       .  A
C158        H174   1.084       .  S
C159        C169   1.411       .  A
C159        C160   1.412       .  A
C160        C166   1.411       .  A
C160        C161   1.415       .  A
C161        C163   1.411       .  A
C161        C162   1.412       .  A
C162        C170   1.411       .  A
C163        C172   1.401       .  A
C163        C164   1.402       .  A
C164        C165   1.397       .  A
C164        H175   1.084       .  S
C165        C166   1.402       .  A
C165        H176   1.083       .  S
C166        C167   1.401       .  A
C167        C168   1.406       .  A
C167        H177   1.084       .  S
C168        C169   1.411       .  A
C169        H178   1.084       .  S
C170        C171   1.411       .  A
C170        H179   1.084       .  S
C171        C172   1.406       .  A
C172        H180   1.084       .  S
C181        C182   1.403       .  A
C181        C186   1.405       .  A
C181        H197   1.084       .  S
C182        C183   1.406   1_455  A
C182        H198   1.083       .  S
C183        C193   1.409       .  A
C183        C184   1.410       .  A
C184        C190   1.413       .  A
C184        C185   1.420   1_655  A
C185        C187   1.410       .  A
C185        C186   1.413       .  A
C186        C194   1.413       .  A
C187        C196   1.408       .  A
C187        C188   1.405   1_455  A
C188        C189   1.402       .  A
C188        H199   1.083       .  S
C189        C190   1.404       .  A
C189        H200   1.084       .  S
C190        C191   1.411       .  A
C191        C192   1.409       .  A
C191        H201   1.084       .  S
C192        C193   1.412       .  A
C193        H202   1.084       .  S
C194        C195   1.410       .  A
C194        H203   1.084       .  S
C195        C196   1.411       .  A
C196        H204   1.084       .  S
C205        C206   1.401       .  A
C205        C210   1.404       .  A
C205        H221   1.084       .  S
C206        C207   1.405       .  A
C206        H222   1.083       .  S
C207        C217   1.405       .  A
C207        C208   1.411       .  A
C208        C214   1.412       .  A
C208        C209   1.412       .  A
C209        C211   1.411       .  A
C209        C210   1.412       .  A
C210        C218   1.405       .  A
C211        C220   1.400       .  A
C211        C212   1.403       .  A
C212        C213   1.398       .  A
C212        H223   1.083       .  S
C213        C214   1.403       .  A
C213        H224   1.084       .  S
C214        C215   1.403       .  A
C215        C216   1.406       .  A
C215        H225   1.084       .  S
C216        C217   1.409       .  A
C217        H226   1.084       .  S
C218        C219   1.408       .  A
C218        H227   1.084       .  S
C219        C220   1.405       .  A
C220        H228   1.084       .  S
C229        C230   1.399       .  A
C229        C234   1.404       .  A
C229        H245   1.084       .  S
C230        C231   1.403       .  A
C230        H246   1.083       .  S
C231        C241   1.403       .  A
C231        C232   1.413       .  A
C232        C238   1.410   1_556  A
C232        C233   1.409   1_556  A
C233        C235   1.412       .  A
C233        C234   1.410   1_554  A
C234        C242   1.401   1_556  A
C235        C244   1.400       .  A
C235        C236   1.402       .  A
C236        C237   1.396       .  A
C236        H247   1.083       .  S
C237        C238   1.402       .  A
C237        H248   1.084       .  S
C238        C239   1.396       .  A
C239        C240   1.405   1_554  A
C239        H249   1.085       .  S
C240        C241   1.405       .  A
C241        H250   1.084       .  S
C242        C243   1.407       .  A
C242        H251   1.084   1_554  S
C243        C244   1.404       .  A
C244        H252   1.084       .  S
C253        C254   1.400       .  A
C253        C258   1.404       .  A
C253        H269   1.083       .  S
C254        C255   1.403       .  A
C254        H270   1.084       .  S
C255        C265   1.407       .  A
C255        C256   1.413       .  A
C256        C262   1.410       .  A
C256        C257   1.414       .  A
C257        C259   1.413       .  A
C257        C258   1.410       .  A
C258        C266   1.403       .  A
C259        C268   1.407       .  A
C259        C260   1.404       .  A
C260        C261   1.400       .  A
C260        H271   1.084       .  S
C261        C262   1.404       .  A
C261        H272   1.084       .  S
C262        C263   1.402       .  A
C263        C264   1.409       .  A
C263        H273   1.084       .  S
C264        C265   1.407       .  A
C265        H274   1.084       .  S
C266        C267   1.409       .  A
C266        H275   1.084       .  S
C267        C268   1.408       .  A
C268        H276   1.084       .  S
C277        C278   1.398       .  A
C277        C282   1.403       .  A
C277        H293   1.084       .  S
C278        C279   1.403       .  A
C278        H294   1.083       .  S
C279        C289   1.402       .  A
C279        C280   1.411       .  A
C280        C286   1.412       .  A
C280        C281   1.411       .  A
C281        C283   1.411       .  A
C281        C282   1.411       .  A
C282        C290   1.401       .  A
C283        C292   1.403       .  A
C283        C284   1.404       .  A
C284        C285   1.400       .  A
C284        H295   1.084       .  S
C285        C286   1.404       .  A
C285        H296   1.084       .  S
C286        C287   1.405       .  A
C287        C288   1.407       .  A
C287        H297   1.084       .  S
C288        C289   1.405       .  A
C289        H298   1.084       .  S
C290        C291   1.406       .  A
C290        H299   1.084       .  S
C291        C292   1.407       .  A
C292        H300   1.084       .  S
C301        C302   1.400       .  A
C301        C306   1.404       .  A
C301        H317   1.083       .  S
C302        C303   1.404       .  A
C302        H318   1.084       .  S
C303        C313   1.405       .  A
C303        C304   1.411       .  A
C304        C310   1.412       .  A
C304        C305   1.413       .  A
C305        C307   1.411       .  A
C305        C306   1.412       .  A
C306        C314   1.405       .  A
C307        C316   1.402       .  A
C307        C308   1.403       .  A
C308        C309   1.399       .  A
C308        H319   1.084       .  S
C309        C310   1.403       .  A
C309        H320   1.083       .  S
C310        C311   1.404       .  A
C311        C312   1.406       .  A
C311        H321   1.084       .  S
C312        C313   1.408       .  A
C313        H322   1.084       .  S
C314        C315   1.406       .  A
C314        H323   1.084       .  S
C315        C316   1.407       .  A
C316        H324   1.085   1_565  S
C325        C326   1.401       .  A
C325        C330   1.404       .  A
C325        H341   1.083       .  S
C326        C327   1.405       .  A
C326        H342   1.084       .  S
C327        C337   1.405       .  A
C327        C328   1.409       .  A
C328        C334   1.414   1_565  A
C328        C329   1.418       .  A
C329        C331   1.410   1_565  A
C329        C330   1.414       .  A
C330        C338   1.412       .  A
C331        C340   1.408   1_545  A
C331        C332   1.406       .  A
C332        C333   1.402       .  A
C332        H343   1.083       .  S
C333        C334   1.404       .  A
C333        H344   1.084       .  S
C334        C335   1.412       .  A
C335        C336   1.408       .  A
C335        H345   1.084       .  S
C336        C337   1.410   1_545  A
C337        H346   1.084       .  S
C338        C339   1.409       .  A
C338        H347   1.084       .  S
C339        C340   1.412       .  A
C340        H348   1.084   1_565  S
C349        C350   1.397       .  A
C349        C354   1.403   1_455  A
C349        H365   1.084       .  S
C350        C351   1.402       .  A
C350        H366   1.084       .  S
C351        C361   1.403       .  A
C351        C352   1.413   1_455  A
C352        C358   1.410       .  A
C352        C353   1.413       .  A
C353        C355   1.413       .  A
C353        C354   1.410       .  A
C354        C362   1.399       .  A
C355        C364   1.408       .  A
C355        C356   1.404       .  A
C356        C357   1.402       .  A
C356        H367   1.084       .  S
C357        C358   1.406       .  A
C357        H368   1.084       .  S
C358        C359   1.407       .  A
C359        C360   1.412   1_655  A
C359        H369   1.084       .  S
C360        C361   1.404       .  A
C361        H370   1.084       .  S
C362        C363   1.406       .  A
C362        H371   1.084   1_655  S
C363        C364   1.407       .  A
C364        H372   1.084       .  S
C373        C374   1.398       .  A
C373        C378   1.403       .  A
C373        H389   1.084       .  S
C374        C375   1.403   1_565  A
C374        H390   1.084       .  S
C375        C385   1.400       .  A
C375        C376   1.410   1_556  A
C376        C382   1.413       .  A
C376        C377   1.413   1_545  A
C377        C379   1.410       .  A
C377        C378   1.413   1_554  A
C378        C386   1.404   1_556  A
C379        C388   1.406       .  A
C379        C380   1.405   1_565  A
C380        C381   1.401       .  A
C380        H391   1.083       .  S
C381        C382   1.404       .  A
C381        H392   1.084       .  S
C382        C383   1.407       .  A
C383        C384   1.407   1_554  A
C383        H393   1.084       .  S
C384        C385   1.407       .  A
C385        H394   1.084       .  S
C386        C387   1.405       .  A
C386        H395   1.084   1_554  S
C387        C388   1.409       .  A
C388        H396   1.084       .  S
C397        C398   1.398       .  A
C397        C402   1.403       .  A
C397        H413   1.084       .  S
C398        C399   1.403       .  A
C398        H414   1.084       .  S
C399        C409   1.401       .  A
C399        C400   1.411       .  A
C400        C406   1.412       .  A
C400        C401   1.413       .  A
C401        C403   1.411       .  A
C401        C402   1.412       .  A
C402        C410   1.403       .  A
C403        C412   1.405       .  A
C403        C404   1.404       .  A
C404        C405   1.400       .  A
C404        H415   1.083       .  S
C405        C406   1.404       .  A
C405        H416   1.084       .  S
C406        C407   1.406       .  A
C407        C408   1.409       .  A
C407        H417   1.084       .  S
C408        C409   1.405       .  A
C409        H418   1.084       .  S
C410        C411   1.407       .  A
C410        H419   1.084       .  S
C411        C412   1.407       .  A
C412        H420   1.084       .  S
C421        C422   1.406       .  A
C421        C426   1.407       .  A
C421        H437   1.084       .  S
C422        C423   1.406       .  A
C422        H438   1.083       .  S
C423        C433   1.418       .  A
C423        C424   1.414       .  A
C424        C430   1.409       .  A
C424        C425   1.421       .  A
C425        C427   1.414       .  A
C425        C426   1.410       .  A
C426        C434   1.412       .  A
C427        C436   1.410       .  A
C427        C428   1.403       .  A
C428        C429   1.400       .  A
C428        H439   1.083       .  S
C429        C430   1.404       .  A
C429        H440   1.084       .  S
C430        C431   1.405       .  A
C431        C432   1.410       .  A
C431        H441   1.084       .  S
C432        C433   1.413       .  A
C433        H442   1.084       .  S
C434        C435   1.415       .  A
C434        H443   1.084       .  S
C435        C436   1.408       .  A
C436        H444   1.084       .  S
C445        C446   1.400       .  A
C445        C450   1.403       .  A
C445        H461   1.084       .  S
C446        C447   1.404   1_455  A
C446        H462   1.084       .  S
C447        C457   1.405       .  A
C447        C448   1.411       .  A
C448        C454   1.412       .  A
C448        C449   1.417   1_655  A
C449        C451   1.411       .  A
C449        C450   1.412       .  A
C450        C458   1.407       .  A
C451        C460   1.411       .  A
C451        C452   1.406   1_455  A
C452        C453   1.402       .  A
C452        H463   1.083       .  S
C453        C454   1.404       .  A
C453        H464   1.084       .  S
C454        C455   1.408       .  A
C455        C456   1.408       .  A
C455        H465   1.084       .  S
C456        C457   1.410       .  A
C457        H466   1.084       .  S
C458        C459   1.406       .  A
C458        H467   1.084       .  S
C459        C460   1.412       .  A
C460        H468   1.084       .  S
C469        C470   1.402       .  A
C469        C474   1.405       .  A
C469        H485   1.083       .  S
C470        C471   1.405       .  A
C470        H486   1.084       .  S
C471        C481   1.407       .  A
C471        C472   1.411       .  A
C472        C478   1.412       .  A
C472        C473   1.414       .  A
C473        C475   1.410       .  A
C473        C474   1.412       .  A
C474        C482   1.409       .  A
C475        C484   1.400       .  A
C475        C476   1.403       .  A
C476        C477   1.397       .  A
C476        H487   1.084       .  S
C477        C478   1.403       .  A
C477        H488   1.083       .  S
C478        C479   1.402       .  A
C479        C480   1.406       .  A
C479        H489   1.084       .  S
C480        C481   1.410       .  A
C481        H490   1.084       .  S
C482        C483   1.410       .  A
C482        H491   1.084       .  S
C483        C484   1.406       .  A
C484        H492   1.084   1_545  S
C493        C494   1.401       .  A
C493        C498   1.404       .  A
C493        H509   1.083       .  S
C494        C495   1.404   1_455  A
C494        H510   1.084       .  S
C495        C505   1.404       .  A
C495        C496   1.409       .  A
C496        C502   1.414       .  A
C496        C497   1.419       .  A
C497        C499   1.410       .  A
C497        C498   1.413   1_655  A
C498        C506   1.411       .  A
C499        C508   1.410       .  A
C499        C500   1.406       .  A
C500        C501   1.403       .  A
C500        H511   1.084       .  S
C501        C502   1.405       .  A
C501        H512   1.084       .  S
C502        C503   1.413       .  A
C503        C504   1.410       .  A
C503        H513   1.084       .  S
C504        C505   1.410       .  A
C505        H514   1.084   1_655  S
C506        C507   1.409       .  A
C506        H515   1.084       .  S
C507        C508   1.412   1_455  A
C508        H516   1.084       .  S
C517        C518   1.400       .  A
C517        C522   1.404       .  A
C517        H533   1.083       .  S
C518        C519   1.404       .  A
C518        H534   1.084       .  S
C519        C529   1.407       .  A
C519        C520   1.412       .  A
C520        C526   1.411       .  A
C520        C521   1.414       .  A
C521        C523   1.412       .  A
C521        C522   1.411       .  A
C522        C530   1.406       .  A
C523        C532   1.405       .  A
C523        C524   1.404       .  A
C524        C525   1.400       .  A
C524        H535   1.084       .  S
C525        C526   1.404       .  A
C525        H536   1.083       .  S
C526        C527   1.405       .  A
C527        C528   1.408       .  A
C527        H537   1.084       .  S
C528        C529   1.408       .  A
C529        H538   1.084       .  S
C530        C531   1.407       .  A
C530        H539   1.084       .  S
C531        C532   1.408       .  A
C532        H540   1.084       .  S
C541        C542   1.400       .  A
C541        C546   1.404       .  A
C541        H557   1.084       .  S
C542        C543   1.404       .  A
C542        H558   1.083       .  S
C543        C553   1.408       .  A
C543        C544   1.413       .  A
C544        C550   1.410       .  A
C544        C545   1.414       .  A
C545        C547   1.413       .  A
C545        C546   1.410       .  A
C546        C554   1.402       .  A
C547        C556   1.406       .  A
C547        C548   1.403       .  A
C548        C549   1.400       .  A
C548        H559   1.083       .  S
C549        C550   1.404       .  A
C549        H560   1.084       .  S
C550        C551   1.403       .  A
C551        C552   1.409       .  A
C551        H561   1.084       .  S
C552        C553   1.408       .  A
C553        H562   1.084       .  S
C554        C555   1.408       .  A
C554        H563   1.084   1_545  S
C555        C556   1.407       .  A
C556        H564   1.084       .  S
C565        C566   1.397       .  A
C565        C570   1.402       .  A
C565        H581   1.083       .  S
C566        C567   1.403       .  A
C566        H582   1.084       .  S
C567        C577   1.399   1_545  A
C567        C568   1.409   1_545  A
C568        C574   1.414       .  A
C568        C569   1.417   1_565  A
C569        C571   1.410   1_545  A
C569        C570   1.413       .  A
C570        C578   1.405       .  A
C571        C580   1.412       .  A
C571        C572   1.407       .  A
C572        C573   1.406       .  A
C572        H583   1.084       .  S
C573        C574   1.406       .  A
C573        H584   1.084       .  S
C574        C575   1.416       .  A
C575        C576   1.412       .  A
C575        H585   1.084       .  S
C576        C577   1.408       .  A
C577        H586   1.084   1_565  S
C578        C579   1.404       .  A
C578        H587   1.084       .  S
C579        C580   1.413   1_545  A
C580        H588   1.084       .  S
C589        C590   1.402       .  A
C589        C594   1.404       .  A
C589        H605   1.084       .  S
C590        C591   1.405       .  A
C590        H606   1.083       .  S
C591        C601   1.407       .  A
C591        C592   1.410       .  A
C592        C598   1.414       .  A
C592        C593   1.419       .  A
C593        C595   1.410       .  A
C593        C594   1.414       .  A
C594        C602   1.411       .  A
C595        C604   1.409       .  A
C595        C596   1.406       .  A
C596        C597   1.403       .  A
C596        H607   1.083       .  S
C597        C598   1.405       .  A
C597        H608   1.084       .  S
C598        C599   1.413       .  A
C599        C600   1.410       .  A
C599        H609   1.084       .  S
C600        C601   1.410       .  A
C601        H610   1.084       .  S
C602        C603   1.409       .  A
C602        H611   1.084       .  S
C603        C604   1.411       .  A
C604        H612   1.084       .  S
C613        C614   1.401       .  A
C613        C618   1.404       .  A
C613        H629   1.083       .  S
C614        C615   1.405       .  A
C614        H630   1.084       .  S
C615        C625   1.404       .  A
C615        C616   1.410       .  A
C616        C622   1.413       .  A
C616        C617   1.412       .  A
C617        C619   1.410       .  A
C617        C618   1.413       .  A
C618        C626   1.407       .  A
C619        C628   1.399       .  A
C619        C620   1.403       .  A
C620        C621   1.397       .  A
C620        H631   1.084       .  S
C621        C622   1.402       .  A
C621        H632   1.083       .  S
C622        C623   1.403       .  A
C623        C624   1.405       .  A
C623        H633   1.084       .  S
C624        C625   1.409       .  A
C625        H634   1.084   1_455  S
C626        C627   1.408       .  A
C626        H635   1.084       .  S
C627        C628   1.406       .  A
C628        H636   1.084   1_565  S
C637        C638   1.401       .  A
C637        C642   1.405       .  A
C637        H653   1.084       .  S
C638        C639   1.404       .  A
C638        H654   1.084       .  S
C639        C649   1.409       .  A
C639        C640   1.414       .  A
C640        C646   1.409       .  A
C640        C641   1.416       .  A
C641        C643   1.414       .  A
C641        C642   1.409       .  A
C642        C650   1.405       .  A
C643        C652   1.410       .  A
C643        C644   1.404       .  A
C644        C645   1.401       .  A
C644        H655   1.084       .  S
C645        C646   1.405       .  A
C645        H656   1.084       .  S
C646        C647   1.404       .  A
C647        C648   1.410       .  A
C647        H657   1.084       .  S
C648        C649   1.407       .  A
C649        H658   1.084       .  S
C650        C651   1.410       .  A
C650        H659   1.084       .  S
C651        C652   1.408       .  A
C652        H660   1.084       .  S
C661        C662   1.402       .  A
C661        C666   1.404   1_556  A
C661        H677   1.084       .  S
C662        C663   1.405   1_545  A
C662        H678   1.083       .  S
C663        C673   1.408       .  A
C663        C664   1.411   1_556  A
C664        C670   1.412       .  A
C664        C665   1.416   1_565  A
C665        C667   1.410       .  A
C665        C666   1.413       .  A
C666        C674   1.409       .  A
C667        C676   1.403       .  A
C667        C668   1.404   1_545  A
C668        C669   1.399       .  A
C668        H679   1.083       .  S
C669        C670   1.403       .  A
C669        H680   1.084       .  S
C670        C671   1.406       .  A
C671        C672   1.407   1_554  A
C671        H681   1.084       .  S
C672        C673   1.410       .  A
C673        H682   1.084       .  S
C674        C675   1.407       .  A
C674        H683   1.084       .  S
C675        C676   1.408       .  A
C676        H684   1.084       .  S
C685        C686   1.403       .  A
C685        C690   1.405       .  A
C685        H701   1.084       .  S
C686        C687   1.406       .  A
C686        H702   1.083       .  S
C687        C697   1.410       .  A
C687        C688   1.411       .  A
C688        C694   1.411       .  A
C688        C689   1.415       .  A
C689        C691   1.411       .  A
C689        C690   1.412       .  A
C690        C698   1.410       .  A
C691        C700   1.402       .  A
C691        C692   1.403       .  A
C692        C693   1.398       .  A
C692        H703   1.083       .  S
C693        C694   1.403       .  A
C693        H704   1.084       .  S
C694        C695   1.402       .  A
C695        C696   1.407       .  A
C695        H705   1.084       .  S
C696        C697   1.411       .  A
C697        H706   1.084       .  S
C698        C699   1.410       .  A
C698        H707   1.084       .  S
C699        C700   1.405       .  A
C700        H708   1.084       .  S
C709        C710   1.400       .  A
C709        C714   1.404       .  A
C709        H725   1.083       .  S
C710        C711   1.404       .  A
C710        H726   1.084       .  S
C711        C721   1.403       .  A
C711        C712   1.410       .  A
C712        C718   1.412   1_554  A
C712        C713   1.413       .  A
C713        C715   1.410       .  A
C713        C714   1.413       .  A
C714        C722   1.406       .  A
C715        C724   1.401       .  A
C715        C716   1.404   1_554  A
C716        C717   1.399       .  A
C716        H727   1.084       .  S
C717        C718   1.403       .  A
C717        H728   1.083       .  S
C718        C719   1.404       .  A
C719        C720   1.406       .  A
C719        H729   1.084       .  S
C720        C721   1.408   1_556  A
C721        H730   1.084   1_455  S
C722        C723   1.407       .  A
C722        H731   1.084       .  S
C723        C724   1.408       .  A
C724        H732   1.084       .  S
