geometry optimzed in LAMMPS
_audit_creation_date              2020-12-01 
_audit_creation_method            'lammps2cif' 
_symmetry_space_group_name_H-M    'P1' 
_symmetry_Int_Tables_number       1 
_symmetry_cell_setting            triclinic 
loop_ 
_symmetry_equiv_pos_as_xyz 
  x,y,z 
_cell_length_a                    28.78613603 
_cell_length_b                    29.653926712745314 
_cell_length_c                    29.088603855841733 
_cell_angle_alpha                 90.68771959003469 
_cell_angle_beta                  88.52562304261656 
_cell_angle_gamma                 90.66928183425046 
loop_ 
_atom_site_label 
_atom_site_type_symbol 
_atom_site_fract_x 
_atom_site_fract_y 
_atom_site_fract_z 
_atom_site_charge 
C1          C  0.84102475  0.82424204  0.03245640     0.03300
C2          C  0.82205894  0.80230061  0.99273806    -0.12900
C3          C  0.84690698  0.80338118  0.94962516     0.00800
C4          C  0.89107189  0.82302885  0.94788674    -0.11400
C5          C  0.90587141  0.85133518  0.98296445     0.03200
C6          C  0.88218618  0.85037311  0.02585448    -0.10800
H7          H  0.78805205  0.78639984  0.99491308     0.08800
H8          H  0.91104364  0.82160452  0.91579126     0.06400
H9          H  0.89531377  0.87108934  0.05368868     0.06200
C10         C  0.77187855  0.26891035  0.04136523     0.03300
C11         C  0.74161582  0.26455686  0.00246973    -0.12900
C12         C  0.76188809  0.26160871  0.95654240     0.00800
C13         C  0.80983191  0.26652737  0.95129253    -0.11400
C14         C  0.83795491  0.26357750  0.98821824     0.03200
C15         C  0.82001303  0.26863311  0.03220726    -0.10800
H16         H  0.70435017  0.26194452  0.00779494     0.08800
H17         H  0.82650085  0.26596886  0.91753765     0.06400
H18         H  0.84469564  0.26791929  0.05967216     0.06200
C19         C  0.27954942  0.86652931  0.05539515     0.03300
C20         C  0.27931205  0.91374034  0.05360396    -0.12900
C21         C  0.29003066  0.93602747  0.01269785     0.00800
C22         C  0.30554320  0.91142607  0.97423828    -0.11400
C23         C  0.29890293  0.86489551  0.97247927     0.03200
C24         C  0.28783483  0.84164581  0.01380038    -0.10800
H25         H  0.26768017  0.93321517  0.08328472     0.08800
H26         H  0.31362287  0.92924151  0.94256348     0.06400
H27         H  0.28396019  0.80528374  0.01329241     0.06200
C28         C  0.81358808  0.09142143  0.74634618     0.03300
C29         C  0.79452741  0.04789147  0.73764836    -0.12900
C30         C  0.82349618  0.00966818  0.74101577     0.00800
C31         C  0.87039245  0.01570681  0.75113151    -0.11400
C32         C  0.88892860  0.05820198  0.76018181     0.03200
C33         C  0.86095940  0.09575461  0.75617202    -0.10800
H34         H  0.75779538  0.04365692  0.73149714     0.08800
H35         H  0.89205970  0.98640640  0.75541513     0.06400
H36         H  0.87509755  0.12878736  0.76429562     0.06200
C37         C  0.96688533  0.26904195  0.77765453     0.03300
C38         C  0.97038968  0.28055279  0.82441534    -0.12900
C39         C  0.01295461  0.28533242  0.84528522     0.00800
C40         C  0.05347392  0.27971677  0.81839813    -0.11400
C41         C  0.05241858  0.26661135  0.77176829     0.03200
C42         C  0.00845763  0.26263422  0.75050996    -0.10800
H43         H  0.93916291  0.28542116  0.84548748     0.08800
H44         H  0.08680482  0.28500540  0.83381902     0.06400
H45         H  0.00656634  0.25345965  0.71447774     0.06200
C46         C  0.98855504  0.87092234  0.76414932     0.03300
C47         C  0.03004954  0.84525291  0.76188848    -0.12900
C48         C  0.07364074  0.86737881  0.76650839     0.00800
C49         C  0.07553733  0.91416605  0.76945399    -0.11400
C50         C  0.03551878  0.94005029  0.77014083     0.03200
C51         C  0.99212645  0.91820694  0.76842226    -0.10800
H52         H  0.02832075  0.80886704  0.75854870     0.08800
H53         H  0.10922553  0.93015429  0.77301534     0.06400
H54         H  0.96088706  0.93823294  0.77083737     0.06200
C55         C  0.27345157  0.09313111  0.78630781     0.03300
C56         C  0.29471493  0.09997125  0.82805170    -0.12900
C57         C  0.28153408  0.07187890  0.86375173     0.00800
C58         C  0.26903402  0.02698726  0.85311486    -0.11400
C59         C  0.26247568  0.01390177  0.80690314     0.03200
C60         C  0.26038229  0.04863503  0.77349381    -0.10800
H61         H  0.30866797  0.13315164  0.83635518     0.08800
H62         H  0.26315496  0.00299459  0.88038211     0.06400
H63         H  0.24855856  0.04129828  0.73914588     0.06200
C64         C  0.98452695  0.79475569  0.17762640     0.03300
C65         C  0.98784975  0.81457538  0.13424581    -0.12900
C66         C  0.03012597  0.82881539  0.11516261     0.00800
C67         C  0.07119299  0.81885866  0.13735387    -0.11400
C68         C  0.07062188  0.79766031  0.18042902     0.03200
C69         C  0.02650641  0.78526219  0.20094462    -0.10800
H70         H  0.95627084  0.82301398  0.11673239     0.08800
H71         H  0.10402606  0.83063634  0.12275038     0.06400
H72         H  0.02478172  0.77150641  0.23524697     0.06200
C73         C  0.78085088  0.09091802  0.19451393     0.03300
C74         C  0.80131847  0.08878056  0.14989619    -0.12900
C75         C  0.80772183  0.04782993  0.12680309     0.00800
C76         C  0.79097775  0.00838606  0.14634084    -0.11400
C77         C  0.77461148  0.00724618  0.19177847     0.03200
C78         C  0.76774735  0.04910773  0.21613354    -0.10800
H79         H  0.81416223  0.11911107  0.13320760     0.08800
H80         H  0.79458165  0.97710931  0.12685000     0.06400
H81         H  0.75452036  0.04905821  0.25129715     0.06200
C82         C  0.96950460  0.23391406  0.26688587     0.03300
C83         C  0.96902466  0.18745723  0.26048194    -0.12900
C84         C  0.00876679  0.16527331  0.24527927     0.00800
C85         C  0.05194005  0.18688371  0.24675399    -0.11400
C86         C  0.05576661  0.23247688  0.25943641     0.03200
C87         C  0.01361499  0.25694381  0.26891946    -0.10800
H88         H  0.93593728  0.16952225  0.25916287     0.08800
H89         H  0.08257260  0.16868784  0.23495824     0.06400
H90         H  0.01501838  0.29294212  0.27539560     0.06200
Zr91       Zr  0.30973062  0.36245471  0.30327677     2.17500
O92         O  0.35405037  0.40611643  0.35926428    -0.51200
O93         O  0.28731046  0.44177022  0.29573733    -0.74400
O94         O  0.39332597  0.37177268  0.27986938    -0.81200
O95         O  0.22196300  0.31041707  0.40077776    -0.82900
O96         O  0.40766317  0.33858770  0.21004737    -0.78600
O97         O  0.29039220  0.34535709  0.38323733    -0.90200
O98         O  0.24311635  0.45476886  0.23412350    -0.76200
O99         O  0.29764865  0.37435474  0.22410148    -0.85700
O100        O  0.22735170  0.36766655  0.29803481    -0.85300
O101        O  0.34302643  0.29672683  0.26601132    -0.72100
O102        O  0.27649166  0.29240259  0.32914501    -0.84200
Zr103      Zr  0.21688078  0.24458191  0.20085163     2.26400
Zr104      Zr  0.33139044  0.30958266  0.18559493     2.06300
Zr105      Zr  0.19419798  0.29651682  0.32220816     2.10000
Zr106      Zr  0.21485291  0.37908368  0.21860030     1.78800
O107        O  0.16993339  0.23241642  0.36901498    -0.93000
O108        O  0.22684401  0.41483917  0.14412171    -0.40800
O109        O  0.18242761  0.30775414  0.24161918    -0.77500
O110        O  0.24836331  0.31703502  0.17749936    -0.96200
O111        O  0.29826882  0.23899891  0.21126286    -0.89500
O112        O  0.22612773  0.23235208  0.28102641    -0.92300
C113        C  0.26987695  0.46820064  0.26587667     1.01400
C114        C  0.26111297  0.32793122  0.41241440     1.14400
C115        C  0.42108708  0.36074855  0.24579282     1.05100
O116        O  0.36489161  0.37022393  0.13914813    -0.94500
O117        O  0.30900857  0.29165578  0.10595704    -0.90200
O118        O  0.24035262  0.25375125  0.11751170    -0.83400
C119        C  0.27190936  0.27264386  0.09073513     1.11800
O120        O  0.35618562  0.23464046  0.35904004    -0.96400
Zr121      Zr  0.30787330  0.22746307  0.29163063     1.88900
O122        O  0.24410050  0.16645189  0.20896261    -0.73100
O123        O  0.38430795  0.25252202  0.15494466    -0.52400
O124        O  0.38443731  0.20084587  0.26709231    -0.97000
O125        O  0.28038597  0.17999129  0.35494257    -0.54300
O126        O  0.29678981  0.15158318  0.26270021    -0.73600
C127        C  0.27083602  0.13913699  0.22995206     0.98700
O128        O  0.17090276  0.19527628  0.15118666    -0.62400
O129        O  0.14034196  0.34996492  0.35816182    -0.57200
O130        O  0.13312823  0.24026744  0.22683630    -0.93900
O131        O  0.11728229  0.27290561  0.29663437    -0.92300
O132        O  0.14908416  0.41535181  0.25756351    -0.92700
O133        O  0.14712498  0.37635539  0.17011540    -0.91500
C134        C  0.10462853  0.25124401  0.26048407     1.17600
H135        H  0.21528707  0.39210593  0.31689146     0.33500
H136        H  0.24044541  0.32603927  0.14710632     0.44400
H137        H  0.21020518  0.20488711  0.29006136     0.37900
H138        H  0.37521244  0.29270785  0.27309925     0.34400
H139        H  0.21287914  0.44507782  0.14767395     0.26200
H140        H  0.40252277  0.24345107  0.18164891     0.32100
H141        H  0.38812649  0.17183280  0.28300978     0.38000
H142        H  0.14656637  0.44494495  0.24247641     0.32500
H143        H  0.11429372  0.35208953  0.33675536     0.31300
H144        H  0.14300379  0.24339758  0.38762371     0.33000
H145        H  0.25448729  0.16155816  0.34274853     0.32000
H146        H  0.14726262  0.34560633  0.15644858     0.36000
H147        H  0.16555281  0.16721922  0.16876183     0.28700
H148        H  0.33057095  0.42224273  0.37853142     0.33000
H149        H  0.37134040  0.20505571  0.36199156     0.35800
H150        H  0.12697023  0.33390941  0.38515378     0.28400
H151        H  0.13970451  0.20868117  0.14964685     0.41300
H152        H  0.34209784  0.37555845  0.11495779     0.31400
H153        H  0.26074486  0.42074694  0.14174131     0.39000
H154        H  0.26520125  0.20112185  0.37707685     0.30800
H155        H  0.36446526  0.22591941  0.14804719     0.30900
H156        H  0.36980140  0.43042431  0.34153691     0.31100
C157        C  0.27375312  0.09196974  0.21134104     0.03300
C158        C  0.28296842  0.05223499  0.23710892    -0.12900
C159        C  0.28245890  0.00926268  0.21413926     0.00800
C160        C  0.27533765  0.00734693  0.16706139    -0.11400
C161        C  0.26006773  0.04451940  0.14467137     0.03200
C162        C  0.26307878  0.08685452  0.16487818    -0.10800
H163        H  0.28775451  0.05444638  0.27385364     0.08800
H164        H  0.27298539  0.97501219  0.14945346     0.06400
H165        H  0.25173143  0.11540928  0.14524369     0.06200
Zr166      Zr  0.32350532  0.75133730  0.31427597     2.17500
O167        O  0.37543672  0.69481185  0.34420122    -0.51200
O168        O  0.30319361  0.74603795  0.39719521    -0.74400
O169        O  0.40486229  0.78080973  0.31966100    -0.81200
O170        O  0.23773821  0.65782455  0.25783605    -0.82900
O171        O  0.41479380  0.85311457  0.29560505    -0.78600
O172        O  0.30604932  0.67336607  0.29182657    -0.90200
O173        O  0.24866808  0.79663040  0.42001441    -0.76200
O174        O  0.30846275  0.82670646  0.33772928    -0.85700
O175        O  0.24086575  0.75388226  0.32467238    -0.85300
O176        O  0.35207839  0.79602764  0.25060220    -0.72100
O177        O  0.28910651  0.73078858  0.24230753    -0.84200
Zr178      Zr  0.22213600  0.85858206  0.21375522     2.26400
Zr179      Zr  0.33624055  0.87238085  0.27453047     2.06300
Zr180      Zr  0.20627513  0.73519187  0.25187564     2.10000
Zr181      Zr  0.22594415  0.82979562  0.34780111     1.78800
O182        O  0.18178594  0.68827408  0.18733530    -0.93000
O183        O  0.24668454  0.89414686  0.39612807    -0.40800
O184        O  0.19204688  0.81200216  0.27503405    -0.77500
O185        O  0.25346736  0.87811536  0.28740649    -0.96200
O186        O  0.30349009  0.85229751  0.20196617    -0.89500
O187        O  0.23461881  0.78227504  0.19014879    -0.92300
C188        C  0.27640949  0.76442304  0.42827164     1.01400
C189        C  0.27715024  0.64538287  0.27325368     1.14400
C190        C  0.43045461  0.81648033  0.31176397     1.05100
O191        O  0.35650670  0.92091934  0.33939634    -0.94500
O192        O  0.31585137  0.94935621  0.25603594    -0.90200
O193        O  0.24650862  0.93828429  0.22153092    -0.83400
C194        C  0.28071951  0.96369096  0.23464993     1.11800
O195        O  0.37720488  0.71896681  0.17429421    -0.96400
Zr196      Zr  0.31645441  0.77558643  0.17978869     1.88900
O197        O  0.24751680  0.86612609  0.13227793    -0.73100
O198        O  0.38831815  0.90367322  0.21560419    -0.52400
O199        O  0.38482978  0.80454853  0.13818271    -0.97000
O200        O  0.29414917  0.71018701  0.13359415    -0.54300
O201        O  0.29461141  0.80922707  0.10863266    -0.73600
C202        C  0.27232827  0.84525158  0.10122415     0.98700
O203        O  0.15916105  0.90870854  0.19453274    -0.62400
O204        O  0.15209173  0.70286498  0.30835222    -0.57200
O205        O  0.14347036  0.83084024  0.19801106    -0.93900
O206        O  0.13025665  0.75916448  0.22265215    -0.92300
O207        O  0.15426793  0.79735543  0.38012574    -0.92700
O208        O  0.16217465  0.88270068  0.35614920    -0.91500
C209        C  0.11711459  0.79560250  0.20313424     1.17600
H210        H  0.23014548  0.73281712  0.34779805     0.33500
H211        H  0.24509136  0.90812656  0.29748330     0.44400
H212        H  0.21863559  0.77551104  0.16204959     0.37900
H213        H  0.38454142  0.79182461  0.24316173     0.34400
H214        H  0.22896017  0.88948369  0.42534068     0.26200
H215        H  0.41131817  0.92192905  0.23267582     0.32100
H216        H  0.38629982  0.78668503  0.10919367     0.38000
H217        H  0.16386307  0.77055269  0.39731954     0.32500
H218        H  0.12881363  0.72671610  0.31417566     0.31300
H219        H  0.16093587  0.66508345  0.20119808     0.33000
H220        H  0.26456491  0.71845492  0.11947072     0.32000
H221        H  0.15640132  0.89252420  0.32440326     0.36000
H222        H  0.15761618  0.93177256  0.21940322     0.28700
H223        H  0.38993716  0.70908124  0.37133351     0.33000
H224        H  0.40351904  0.73147816  0.19180092     0.35800
H225        H  0.13516902  0.67907317  0.29119956     0.28400
H226        H  0.17074817  0.92501537  0.16696792     0.41300
H227        H  0.38453048  0.93784783  0.32871927     0.31400
H228        H  0.27945868  0.88910911  0.40400857     0.39000
H229        H  0.28527409  0.68676800  0.15626457     0.30800
H230        H  0.40599815  0.87748794  0.20344781     0.30900
H231        H  0.40103912  0.69196186  0.32099269     0.31100
Zr232      Zr  0.81693010  0.25073838  0.19965956     2.17500
O233        O  0.87506334  0.23205918  0.14020131    -0.51200
O234        O  0.80310411  0.16866914  0.19832503    -0.74400
O235        O  0.89701925  0.24351305  0.23018951    -0.81200
O236        O  0.71977539  0.28569830  0.10722279    -0.82900
O237        O  0.90632512  0.27556020  0.30079877    -0.78600
O238        O  0.79154993  0.25869188  0.11970835    -0.90200
O239        O  0.74547317  0.14586341  0.24745080    -0.76200
O240        O  0.80358181  0.23167792  0.27797114    -0.85700
O241        O  0.73547842  0.23578912  0.20718041    -0.85300
O242        O  0.84202689  0.31678484  0.24179177    -0.72100
O243        O  0.77810236  0.31819150  0.17734476    -0.84200
Zr244      Zr  0.70916655  0.35294798  0.31053497     2.26400
Zr245      Zr  0.82699893  0.29730522  0.32109325     2.06300
Zr246      Zr  0.69614017  0.30372833  0.18737092     2.10000
Zr247      Zr  0.72217931  0.21728211  0.28570729     1.78800
O248        O  0.67407125  0.36610444  0.13909217    -0.93000
O249        O  0.75122988  0.16785461  0.34459261    -0.40800
O250        O  0.68409762  0.28675070  0.26746594    -0.77500
O251        O  0.74485101  0.28248439  0.33105420    -0.96200
O252        O  0.79017533  0.36624350  0.29982270    -0.89500
O253        O  0.72057088  0.36942746  0.23082281    -0.92300
C254        C  0.77641586  0.13764922  0.21580873     1.01400
C255        C  0.75903122  0.27040345  0.09232503     1.14400
C256        C  0.92211956  0.25419879  0.26534139     1.05100
O257        O  0.84737759  0.23303251  0.36746306    -0.94500
O258        O  0.80609117  0.31652055  0.40022863    -0.90200
O259        O  0.73977912  0.35618545  0.39125220    -0.83400
C260        C  0.77334076  0.34136201  0.41623784     1.11800
O261        O  0.85972571  0.38702174  0.15771756    -0.96400
Zr262      Zr  0.80186347  0.38354784  0.22035113     1.88900
O263        O  0.72644319  0.43630638  0.30841598    -0.73100
O264        O  0.87929176  0.35208126  0.35631787    -0.52400
O265        O  0.87130013  0.42260362  0.24680718    -0.97000
O266        O  0.77565242  0.42836754  0.15641165    -0.54300
O267        O  0.78026732  0.45608970  0.25382050    -0.73600
C268        C  0.75227514  0.46627897  0.28711256     0.98700
O269        O  0.64625153  0.36850564  0.36597158    -0.62400
O270        O  0.63955899  0.24804195  0.16063626    -0.57200
O271        O  0.62883168  0.36138602  0.28055468    -0.93900
O272        O  0.61794716  0.32677931  0.21115604    -0.92300
O273        O  0.65118329  0.18199922  0.25802517    -0.92700
O274        O  0.66342936  0.20943061  0.34697405    -0.91500
C275        C  0.60315725  0.34995158  0.24593074     1.17600
H276        H  0.72609914  0.21142865  0.18702686     0.33500
H277        H  0.73714516  0.27527916  0.36263012     0.44400
H278        H  0.70284643  0.39550970  0.22276090     0.37900
H279        H  0.87454082  0.32334381  0.23595937     0.34400
H280        H  0.78038336  0.15527614  0.33126604     0.26200
H281        H  0.90157680  0.33381830  0.37333732     0.32100
H282        H  0.86695552  0.42477453  0.28062495     0.38000
H283        H  0.63106195  0.20748702  0.25016817     0.32500
H284        H  0.62342951  0.26317814  0.13553231     0.31300
H285        H  0.64411141  0.35655645  0.12588666     0.33000
H286        H  0.74906129  0.44596018  0.16886330     0.32000
H287        H  0.64570486  0.23783245  0.34629525     0.36000
H288        H  0.65010648  0.34686814  0.39120973     0.28700
H289        H  0.88775439  0.20269038  0.14922808     0.33000
H290        H  0.86919002  0.41916577  0.15568055     0.35800
H291        H  0.65791366  0.22415103  0.14488450     0.28400
H292        H  0.65410025  0.39835962  0.37949468     0.41300
H293        H  0.86905963  0.24550465  0.39037193     0.31400
H294        H  0.76155022  0.18847523  0.36941127     0.39000
H295        H  0.76161848  0.40619457  0.13501516     0.30800
H296        H  0.89786246  0.36476906  0.33034620     0.30900
H297        H  0.90088144  0.25405588  0.14391040     0.31100
Zr298      Zr  0.71675661  0.74927338  0.29340326     2.17500
O299        O  0.65155599  0.69678661  0.30199180    -0.51200
O300        O  0.71688023  0.75739902  0.37903858    -0.74400
O301        O  0.74271089  0.66971919  0.29410646    -0.81200
O302        O  0.62835466  0.84837913  0.27859203    -0.82900
O303        O  0.81487824  0.65752567  0.26308016    -0.78600
O304        O  0.63682720  0.77676701  0.30391330    -0.90200
O305        O  0.77074153  0.80891526  0.40183167    -0.76200
O306        O  0.79711235  0.75514333  0.31052698    -0.85700
O307        O  0.72846306  0.82632060  0.31374599    -0.85300
O308        O  0.75773116  0.72803446  0.22295229    -0.72100
O309        O  0.69547342  0.79206841  0.22709142    -0.84200
Zr310      Zr  0.83143282  0.85543120  0.19736733     2.26400
Zr311      Zr  0.83909322  0.73439792  0.24039365     2.06300
Zr312      Zr  0.70705654  0.86966652  0.24871862     2.10000
Zr313      Zr  0.80876145  0.83275383  0.33071585     1.78800
O314        O  0.65363451  0.89251321  0.18981354    -0.93000
O315        O  0.86995582  0.80041446  0.37592685    -0.40800
O316        O  0.78832639  0.87678061  0.26588351    -0.77500
O317        O  0.85269664  0.81190401  0.26305775    -0.96200
O318        O  0.81953656  0.77898341  0.17528039    -0.89500
O319        O  0.75107791  0.85015222  0.17950852    -0.92300
C320        C  0.73702439  0.78155352  0.41047516     1.01400
C321        C  0.61233079  0.81243948  0.29828028     1.14400
C322        C  0.77710405  0.64344882  0.28299106     1.05100
O323        O  0.89413877  0.70424443  0.29391677    -0.94500
O324        O  0.91854580  0.75561373  0.21337949    -0.90200
O325        O  0.91199069  0.82892523  0.19244805    -0.85200
C326        C  0.93584391  0.79273505  0.19741323     1.11800
O327        O  0.66952056  0.72771163  0.14671705    -0.96400
Zr328      Zr  0.73956997  0.77318812  0.15772298     1.88900
O329        O  0.83685364  0.84634466  0.11263195    -0.73100
O330        O  0.85782156  0.68455284  0.17551793    -0.52400
O331        O  0.76004309  0.70143146  0.12131154    -0.97000
O332        O  0.68555262  0.80852298  0.10619935    -0.54300
O333        O  0.78495822  0.79398692  0.08801085    -0.73600
C334        C  0.81900748  0.82166581  0.08046779     0.98700
O335        O  0.88697017  0.91737431  0.18644504    -0.62400
O336        O  0.68312850  0.92535702  0.30677431    -0.57200
O337        O  0.80527002  0.93420135  0.19858324    -0.93900
O338        O  0.73329570  0.94641111  0.23004653    -0.92300
O339        O  0.78664226  0.90131587  0.37222774    -0.92700
O340        O  0.87349706  0.88557270  0.33912230    -0.91500
C341        C  0.77101440  0.96029034  0.21010379     1.17600
H342        H  0.70915393  0.83496419  0.33993980     0.33500
H343        H  0.88478862  0.81661615  0.27082850     0.44400
H344        H  0.74418275  0.87027310  0.15478982     0.37900
H345        H  0.75001046  0.69735130  0.21442806     0.34400
H346        H  0.86554487  0.81374259  0.40709123     0.26200
H347        H  0.88402232  0.66627504  0.18596282     0.32100
H348        H  0.79088094  0.70676424  0.10638102     0.38000
H349        H  0.77360112  0.92097465  0.34862360     0.32500
H350        H  0.65549064  0.93979354  0.29402834     0.31300
H351        H  0.65854733  0.92540769  0.18639381     0.33000
H352        H  0.70207866  0.83535377  0.09374972     0.32000
H353        H  0.87767613  0.89936081  0.30843071     0.36000
H354        H  0.90973372  0.91440797  0.21114817     0.28700
H355        H  0.65599820  0.68290239  0.33226276     0.33000
H356        H  0.66870504  0.72118394  0.11327831     0.35800
H357        H  0.67079578  0.90782819  0.33323531     0.28400
H358        H  0.90445571  0.91006477  0.15759364     0.41300
H359        H  0.91637371  0.68680397  0.27442599     0.31400
H360        H  0.86099018  0.76828807  0.37949183     0.39000
H361        H  0.66079918  0.82096027  0.12674507     0.30800
H362        H  0.83136125  0.66301363  0.17390346     0.30900
H363        H  0.65686650  0.67234877  0.27903866     0.31100
C364        C  0.25588299  0.28430992  0.04329398     0.03300
C365        C  0.21359455  0.30667873  0.04525633    -0.12900
C366        C  0.18155064  0.29757803  0.01168281     0.00800
C367        C  0.19742400  0.28469173  0.96783276    -0.11400
C368        C  0.24460281  0.27461003  0.95914593     0.03200
C369        C  0.27394653  0.27112017  0.99854016    -0.10800
H370        H  0.20050455  0.31992761  0.07796764     0.08800
H371        H  0.17223456  0.28045834  0.94100595     0.06400
H372        H  0.30849211  0.25737203  0.99466356     0.06200
Zr373      Zr  0.21063817  0.24190222  0.79829983     2.17500
O374        O  0.15789266  0.20830126  0.85463460    -0.51200
O375        O  0.23262105  0.16152603  0.78810862    -0.74400
O376        O  0.12814256  0.23793537  0.77549298    -0.81200
O377        O  0.29861317  0.28372843  0.89431881    -0.82900
O378        O  0.11257256  0.28151949  0.71406654    -0.78600
O379        O  0.22709587  0.25363864  0.88133027    -0.90200
O380        O  0.28580057  0.14871019  0.73056343    -0.76200
O381        O  0.22046500  0.23153364  0.71731230    -0.85700
O382        O  0.29239780  0.23256775  0.78758805    -0.85300
O383        O  0.18269513  0.31061921  0.76561979    -0.72100
O384        O  0.24704627  0.30948885  0.82691195    -0.84200
Zr385      Zr  0.30775590  0.35883749  0.70093658     2.26400
Zr386      Zr  0.19156163  0.29948205  0.68333943     2.06300
Zr387      Zr  0.32911518  0.30013753  0.81583937     2.10000
Zr388      Zr  0.30285546  0.22413301  0.70630613     1.78800
O389        O  0.36488120  0.35487429  0.86745176    -0.93000
O390        O  0.27905811  0.18500008  0.63650581    -0.40800
O391        O  0.33831179  0.29203651  0.73411872    -0.77500
O392        O  0.27412229  0.28976695  0.67220136    -0.96200
O393        O  0.22665257  0.36833627  0.71247588    -0.89500
O394        O  0.30047979  0.36785573  0.78219736    -0.92300
C395        C  0.26051861  0.13564546  0.76443497     1.01400
C396        C  0.25881109  0.26849002  0.90887734     1.14400
C397        C  0.09957657  0.25898641  0.74991235     1.05100
O398        O  0.15781980  0.23892741  0.63722258    -0.94500
O399        O  0.22165992  0.31778400  0.60471237    -0.90200
O400        O  0.28475649  0.36157750  0.62005690    -0.83400
C401        C  0.25812174  0.34054081  0.59169748     1.11800
O402        O  0.15050396  0.37573058  0.84537910    -0.96400
Zr403      Zr  0.21895086  0.37733397  0.79418233     1.88900
O404        O  0.29917153  0.43888321  0.72290487    -0.73100
O405        O  0.14324454  0.35673071  0.64984976    -0.52400
O406        O  0.16241501  0.42562239  0.75876710    -0.97000
O407        O  0.23426118  0.40629201  0.87118554    -0.54300
O408        O  0.25177467  0.45183808  0.78492789    -0.73600
C409        C  0.28159847  0.46485415  0.75470901     0.98700
O410        O  0.36395189  0.39759927  0.65085725    -0.62400
O411        O  0.37857761  0.23997650  0.84188049    -0.57200
O412        O  0.39019624  0.35104453  0.71655584    -0.93900
O413        O  0.40726538  0.32139504  0.78534289    -0.92300
O414        O  0.37608228  0.19049433  0.72704824    -0.92700
O415        O  0.36123490  0.22733442  0.64423259    -0.91500
C416        C  0.41967729  0.33889361  0.74654505     1.17600
H417        H  0.30388121  0.20713108  0.80404480     0.33500
H418        H  0.28412466  0.28277918  0.64118184     0.44400
H419        H  0.31848958  0.39311800  0.79351072     0.37900
H420        H  0.15150843  0.31724063  0.77589106     0.34400
H421        H  0.29329091  0.15483063  0.63799642     0.26200
H422        H  0.12626686  0.34050888  0.62539044     0.32100
H423        H  0.13613151  0.40522427  0.75130870     0.38000
H424        H  0.39593491  0.21628667  0.73650531     0.32500
H425        H  0.40542509  0.23962010  0.81993419     0.31300
H426        H  0.33847086  0.36974425  0.88368951     0.33000
H427        H  0.26595366  0.41954472  0.86891542     0.32000
H428        H  0.38227737  0.25252396  0.65286730     0.36000
H429        H  0.37835052  0.37400282  0.63110161     0.28700
H430        H  0.13710084  0.18745928  0.83775668     0.33000
H431        H  0.14176687  0.40771405  0.84983327     0.35800
H432        H  0.39151197  0.25179021  0.87090613     0.28400
H433        H  0.34610918  0.41625196  0.62971781     0.41300
H434        H  0.17719498  0.23779140  0.60863070     0.31400
H435        H  0.24532581  0.17926343  0.64111675     0.39000
H436        H  0.23779168  0.37911284  0.89017794     0.30800
H437        H  0.11917594  0.36348899  0.67378039     0.30900
H438        H  0.13796435  0.23330879  0.86565453     0.31100
Zr439      Zr  0.22757467  0.85350346  0.82433821     2.17500
O440        O  0.16692193  0.87053107  0.88185753    -0.51200
O441        O  0.24102701  0.93635690  0.82122817    -0.74400
O442        O  0.25822780  0.85721626  0.90315752    -0.81200
O443        O  0.13227843  0.82169477  0.73260245    -0.82900
O444        O  0.32916735  0.82459847  0.90740694    -0.78600
O445        O  0.14669853  0.85868470  0.79989115    -0.90200
O446        O  0.28594762  0.95374396  0.75847604    -0.76200
O447        O  0.30786392  0.86749112  0.80927358    -0.85700
O448        O  0.23472909  0.86888770  0.74418520    -0.85300
O449        O  0.26494713  0.78449327  0.84454620    -0.72100
O450        O  0.19986082  0.78725353  0.78427402    -0.84200
Zr451      Zr  0.32967075  0.74926971  0.70877305     2.26400
Zr452      Zr  0.34613874  0.79909055  0.82894232     2.06300
Zr453      Zr  0.20918876  0.80226194  0.70368494     2.10000
Zr454      Zr  0.31509434  0.88260929  0.72913624     1.78800
O455        O  0.15432355  0.74393175  0.67996846    -0.93000
O456        O  0.38344069  0.92407495  0.75499153    -0.40800
O457        O  0.29008326  0.81671263  0.68805518    -0.77500
O458        O  0.35640346  0.81622173  0.74850317    -0.96200
O459        O  0.32036545  0.73284403  0.78832024    -0.89500
O460        O  0.24896474  0.73439963  0.72206536    -0.92300
C461        C  0.26186733  0.96497284  0.79427838     1.01400
C462        C  0.11956860  0.84568387  0.76741988     1.14400
C463        C  0.29454423  0.84581081  0.92539741     1.05100
O464        O  0.40436014  0.85212311  0.85712291    -0.94500
O465        O  0.42279329  0.77502384  0.80278413    -0.90200
O466        O  0.41150918  0.74329704  0.73210611    -0.83400
C467        C  0.43725990  0.75418540  0.76642149     1.11800
O468        O  0.18168342  0.70672767  0.86333529    -0.96400
Zr469      Zr  0.23951341  0.71931390  0.80202355     1.88900
O470        O  0.32341082  0.66655821  0.71918557    -0.73100
O471        O  0.36660103  0.73671075  0.87797686    -0.52400
O472        O  0.27041722  0.68089942  0.86799390    -0.97000
O473        O  0.16990322  0.68103238  0.77453835    -0.54300
O474        O  0.26759839  0.64777910  0.77232849    -0.73600
C475        C  0.30007671  0.63733836  0.74343838     0.98700
O476        O  0.38132777  0.73143953  0.64337675    -0.62400
O477        O  0.17925230  0.85826671  0.65168196    -0.57200
O478        O  0.29971960  0.74938051  0.62989026    -0.93900
O479        O  0.22980433  0.78373172  0.62413145    -0.92300
O480        O  0.28465589  0.92192154  0.66361071    -0.92700
O481        O  0.37515640  0.89143009  0.66932423    -0.91500
C482        C  0.26467609  0.76254601  0.60665063     1.17600
H483        H  0.21639508  0.89466350  0.73647811     0.33500
H484        H  0.38849437  0.82300759  0.74075369     0.44400
H485        H  0.23862619  0.70938084  0.70321712     0.37900
H486        H  0.25928856  0.77752670  0.87654024     0.34400
H487        H  0.38137995  0.95411982  0.74073548     0.26200
H488        H  0.39310307  0.74830683  0.89584148     0.32100
H489        H  0.30012961  0.66781263  0.85669813     0.38000
H490        H  0.27304688  0.89766648  0.64307564     0.32500
H491        H  0.15034812  0.84452176  0.63983663     0.31300
H492        H  0.13632217  0.75801726  0.65550878     0.33000
H493        H  0.17944676  0.66610457  0.74523263     0.32000
H494        H  0.38189618  0.86027704  0.65871567     0.36000
H495        H  0.40709892  0.75380265  0.64456025     0.28700
H496        H  0.17853018  0.89698121  0.89942007     0.33000
H497        H  0.17652866  0.67365381  0.86401630     0.35800
H498        H  0.16844150  0.88356508  0.67154972     0.28400
H499        H  0.39554219  0.70224188  0.65079948     0.41300
H500        H  0.38909240  0.88186537  0.85709372     0.31400
H501        H  0.37736494  0.92989743  0.78816609     0.39000
H502        H  0.14923111  0.70563024  0.76539802     0.30800
H503        H  0.34063998  0.73437128  0.90084095     0.30900
H504        H  0.16710725  0.84519992  0.90372343     0.31100
Zr505      Zr  0.80370866  0.23876171  0.80551083     2.17500
O506        O  0.85709091  0.19951945  0.85492952    -0.51200
O507        O  0.79919656  0.15939473  0.78473819    -0.74400
O508        O  0.76327641  0.22761738  0.88207639    -0.81200
O509        O  0.90800915  0.28063939  0.72174354    -0.82900
O510        O  0.70715722  0.27854185  0.89809469    -0.78600
O511        O  0.88764588  0.25047037  0.79105015    -0.90200
O512        O  0.76006725  0.14646061  0.71929353    -0.76200
O513        O  0.72380237  0.22774889  0.79060752    -0.85700
O514        O  0.80234247  0.23033297  0.72355802    -0.85300
O515        O  0.76808364  0.30667019  0.83424720    -0.72100
O516        O  0.83559801  0.30622609  0.77200408    -0.84200
Zr517      Zr  0.71537441  0.35538335  0.70571370     2.26400
Zr518      Zr  0.68639423  0.29547139  0.81890908     2.06300
Zr519      Zr  0.83237501  0.29863498  0.68984805     2.10000
Zr520      Zr  0.72206905  0.21908938  0.70897108     1.78800
O521        O  0.88731856  0.35705463  0.66489064    -0.93000
O522        O  0.66055319  0.17094876  0.74115145    -0.40800
O523        O  0.75155472  0.28803265  0.67561228    -0.77500
O524        O  0.68287764  0.28597460  0.73628787    -0.96200
O525        O  0.71909398  0.36411215  0.78673984    -0.89500
O526        O  0.79569083  0.36564035  0.71931889    -0.92300
C527        C  0.78713603  0.13397934  0.75096726     1.01400
C528        C  0.91829056  0.26489797  0.76117371     1.14400
C529        C  0.73983065  0.25295090  0.91091379     1.05100
O530        O  0.63656438  0.23103636  0.83727890    -0.94500
O531        O  0.61002835  0.32244164  0.79592859    -0.90200
O532        O  0.63387825  0.35865014  0.73153767    -0.83400
C533        C  0.60170680  0.34658000  0.76086369     1.11800
O534        O  0.85366705  0.36459162  0.86405076    -0.96400
Zr535      Zr  0.80019109  0.37321579  0.80109188     1.88900
O536        O  0.73557519  0.43568209  0.72265397    -0.73100
O537        O  0.64926394  0.34756878  0.87349255    -0.52400
O538        O  0.76876702  0.41054754  0.86999944    -0.97000
O539        O  0.87642075  0.40556899  0.78168575    -0.54300
O540        O  0.78438640  0.45008421  0.78106032    -0.73600
C541        C  0.76008451  0.46302994  0.74781693     0.98700
O542        O  0.66928843  0.39164389  0.64761143    -0.62400
O543        O  0.86708907  0.24341165  0.63706270    -0.57200
O544        O  0.73945517  0.35588172  0.62359320    -0.93900
O545        O  0.81029418  0.32374246  0.61259356    -0.92300
O546        O  0.73988918  0.19093586  0.63154383    -0.92700
O547        O  0.65768841  0.21560198  0.65629287    -0.91500
C548        C  0.77461250  0.34441581  0.59760429     1.17600
H549        H  0.82176218  0.20607119  0.71231610     0.33500
H550        H  0.65127921  0.28089524  0.72708350     0.44400
H551        H  0.80828370  0.39167402  0.70349219     0.37900
H552        H  0.77527673  0.31235226  0.86589309     0.34400
H553        H  0.65614730  0.14686184  0.71774977     0.26200
H554        H  0.63072883  0.32821740  0.89475661     0.32100
H555        H  0.78600228  0.43955387  0.87215265     0.38000
H556        H  0.77240681  0.18055199  0.63253044     0.32500
H557        H  0.84207541  0.23535372  0.61562579     0.31300
H558        H  0.90819073  0.34185505  0.64215580     0.33000
H559        H  0.87524488  0.41309973  0.74868913     0.32000
H560        H  0.65482799  0.24683143  0.64510746     0.36000
H561        H  0.64101475  0.37268155  0.64420859     0.28700
H562        H  0.83748631  0.18222037  0.87706002     0.33000
H563        H  0.86334764  0.39560404  0.87279964     0.35800
H564        H  0.88981963  0.26094303  0.61818115     0.28400
H565        H  0.65829578  0.42012954  0.66201207     0.41300
H566        H  0.60964517  0.24415724  0.85431912     0.31400
H567        H  0.67476396  0.15539600  0.76714628     0.39000
H568        H  0.89806399  0.37988431  0.78255152     0.30800
H569        H  0.67476493  0.35990029  0.89228084     0.30900
H570        H  0.87310403  0.22276541  0.87356754     0.31100
Zr571      Zr  0.82371848  0.85999438  0.79895148     2.17500
O572        O  0.82960987  0.92086028  0.85576971    -0.51200
O573        O  0.90826417  0.86836866  0.78657610    -0.74400
O574        O  0.83353840  0.83197844  0.87671977    -0.81200
O575        O  0.78877923  0.94627594  0.70378137    -0.82900
O576        O  0.80847834  0.76007863  0.88948038    -0.78600
O577        O  0.81887620  0.93840176  0.77483305    -0.90200
O578        O  0.93464097  0.81740953  0.73364813    -0.76200
O579        O  0.84802447  0.78396324  0.78803346    -0.85700
O580        O  0.84030050  0.85408156  0.71874151    -0.85300
O581        O  0.75942391  0.81329947  0.82499580    -0.72100
O582        O  0.75392899  0.87905822  0.76109167    -0.84200
Zr583      Zr  0.72949889  0.74681576  0.69516080     2.26400
Zr584      Zr  0.78330992  0.73596796  0.81220780     2.06300
Zr585      Zr  0.76950001  0.86942023  0.68031358     2.10000
Zr586      Zr  0.86493622  0.77868523  0.70758281     1.78800
O587        O  0.70077408  0.91276047  0.66299280    -0.93000
O588        O  0.91554205  0.71983245  0.73442974    -0.40800
O589        O  0.79384648  0.79310715  0.66924946    -0.77500
O590        O  0.80225258  0.73005663  0.73102904    -0.96200
O591        O  0.71249219  0.75491198  0.77511750    -0.89500
O592        O  0.70502934  0.82270048  0.70493436    -0.92300
C593        C  0.94107412  0.85028182  0.76184254     1.01400
C594        C  0.80743273  0.96219581  0.74016166     1.14400
C595        C  0.82680104  0.79765159  0.90299793     1.05100
O596        O  0.84074985  0.68635830  0.84416043    -0.94500
O597        O  0.77356988  0.65648606  0.78409484    -0.90200
O598        O  0.74062445  0.66785554  0.71539644    -0.83400
C599        C  0.75773019  0.64157282  0.74556544     1.11800
O600        O  0.68329725  0.89486594  0.83999950    -0.96400
Zr601      Zr  0.69066056  0.83219943  0.78548546     1.88900
O602        O  0.64600887  0.73910179  0.71706607    -0.73100
O603        O  0.71897128  0.70578789  0.85889518    -0.52400
O604        O  0.64922307  0.81058624  0.85597250    -0.97000
O605        O  0.64087777  0.88819766  0.75184757    -0.54300
O606        O  0.62027102  0.79435268  0.76558521    -0.73600
C607        C  0.61392785  0.75856902  0.74187702     0.98700
O608        O  0.70280942  0.69703506  0.63354963    -0.62400
O609        O  0.81919690  0.90322720  0.62055277    -0.57200
O610        O  0.73034571  0.77015672  0.61387627    -0.93900
O611        O  0.75366508  0.84288817  0.60274275    -0.92300
O612        O  0.90372637  0.81010135  0.63965174    -0.92700
O613        O  0.87772958  0.72335908  0.64618197    -0.91500
C614        C  0.73872668  0.80464229  0.58797541     1.17600
H615        H  0.86421037  0.87534828  0.70921318     0.33500
H616        H  0.81474381  0.70106149  0.72250114     0.44400
H617        H  0.67762522  0.82819967  0.68743304     0.37900
H618        H  0.75199596  0.81852757  0.85713858     0.34400
H619        H  0.94337680  0.72141898  0.71376693     0.26200
H620        H  0.72880788  0.67509963  0.86713016     0.32100
H621        H  0.65429287  0.77774610  0.85832203     0.38000
H622        H  0.87831696  0.82259652  0.62155622     0.32500
H623        H  0.80743861  0.93415889  0.61668364     0.31300
H624        H  0.71209127  0.93610433  0.64124504     0.33000
H625        H  0.65964939  0.91638923  0.75164986     0.32000
H626        H  0.84624773  0.71608364  0.63509200     0.36000
H627        H  0.73082421  0.68099440  0.62200922     0.28700
H628        H  0.86123389  0.91875327  0.86801073     0.33000
H629        H  0.70742128  0.88974098  0.86295571     0.35800
H630        H  0.84992172  0.90747590  0.63458518     0.28400
H631        H  0.68326397  0.67354911  0.64866555     0.41300
H632        H  0.86566174  0.68445149  0.82013515     0.31400
H633        H  0.92655433  0.73105546  0.76448819     0.39000
H634        H  0.61597185  0.89359979  0.77531087     0.30800
H635        H  0.71987113  0.72316267  0.88813704     0.30900
H636        H  0.80832253  0.91271230  0.88170850     0.31100
C637        C  0.56815030  0.73579344  0.74779461     0.03300
C638        C  0.56734163  0.68860933  0.74899233    -0.12900
C639        C  0.52625494  0.66524720  0.75979470     0.00800
C640        C  0.48661447  0.68921134  0.77331865    -0.11400
C641        C  0.48456227  0.73539980  0.76645770     0.03200
C642        C  0.52596388  0.75957073  0.75550371    -0.10800
H643        H  0.59837272  0.66983503  0.73969600     0.08800
H644        H  0.45500979  0.67109517  0.78317709     0.06400
H645        H  0.52524698  0.79588224  0.75213321     0.06200
C646        C  0.30524300  0.50900077  0.76050004     0.03300
C647        C  0.28536331  0.55217624  0.75513905    -0.12900
C648        C  0.31476278  0.58909794  0.74160245     0.00800
C649        C  0.36056799  0.57927611  0.72724408    -0.11400
C650        C  0.37892092  0.53660077  0.73505652     0.03200
C651        C  0.35328844  0.50550886  0.76006251    -0.10800
H652        H  0.24820480  0.55652705  0.75929752     0.08800
H653        H  0.38083044  0.60372830  0.70783704     0.06400
H654        H  0.36864997  0.47270120  0.76548250     0.06200
C655        C  0.55344888  0.36080955  0.74891120     0.03300
C656        C  0.55343885  0.39246339  0.71393515    -0.12900
C657        C  0.52008028  0.39004095  0.68119763     0.00800
C658        C  0.47837024  0.36811867  0.69047995    -0.11400
C659        C  0.46996116  0.34813520  0.73379834     0.03200
C660        C  0.50962927  0.34027265  0.76169570    -0.10800
H661        H  0.58389715  0.41337960  0.70675329     0.08800
H662        H  0.45193438  0.36956979  0.66484590     0.06400
H663        H  0.50662093  0.31876731  0.79143693     0.06200
C664        C  0.76718691  0.50972573  0.72998358     0.03300
C665        C  0.76324410  0.55228242  0.75435275    -0.12900
C666        C  0.76489703  0.59349873  0.72857618     0.00800
C667        C  0.76930194  0.58959415  0.68029770    -0.11400
C668        C  0.76587762  0.54828782  0.65836341     0.03200
C669        C  0.77458635  0.50992732  0.68240085    -0.10800
H670        H  0.75695601  0.55313446  0.79118548     0.08800
H671        H  0.76744832  0.61887150  0.65857561     0.06400
H672        H  0.77573278  0.47844183  0.66294385     0.06200
C673        C  0.55661428  0.37219375  0.24284461     0.03300
C674        C  0.51151068  0.35110547  0.24185189    -0.12900
C675        C  0.47042901  0.37816332  0.24657692     0.00800
C676        C  0.47599615  0.42454507  0.25488619    -0.11400
C677        C  0.52013565  0.44451787  0.25545183     0.03200
C678        C  0.55907899  0.41899791  0.24360942    -0.10800
H679        H  0.50841213  0.31476751  0.23924642     0.08800
H680        H  0.44582604  0.44487229  0.26350200     0.06400
H681        H  0.59295633  0.43540742  0.24154419     0.06200
C682        C  0.75197047  0.51491602  0.30449131     0.03300
C683        C  0.73047877  0.52328558  0.34761524    -0.12900
C684        C  0.73422538  0.56561393  0.36867347     0.00800
C685        C  0.76174018  0.59900461  0.34955802    -0.11400
C686        C  0.77387203  0.59689104  0.30320821     0.03200
C687        C  0.77160817  0.55349459  0.28037310    -0.10800
H688        H  0.70923336  0.49758394  0.36431557     0.08800
H689        H  0.76380447  0.63118227  0.36782422     0.06400
H690        H  0.78302464  0.55015164  0.24477607     0.06200
C691        C  0.56501318  0.81221503  0.32213247     0.03300
C692        C  0.56416965  0.79487826  0.36689115    -0.12900
C693        C  0.52259387  0.78764249  0.39156181     0.00800
C694        C  0.48119251  0.80182266  0.37372124    -0.11400
C695        C  0.47898016  0.81582063  0.32852840     0.03200
C696        C  0.52135979  0.82260147  0.30221078    -0.10800
H697        H  0.59618981  0.78355735  0.38157481     0.08800
H698        H  0.44890034  0.79658377  0.39286194     0.06400
H699        H  0.52019743  0.83294270  0.26671247     0.06200
C700        C  0.29080271  0.51424055  0.26402041     0.03300
C701        C  0.26773570  0.55693767  0.26334426    -0.12900
C702        C  0.29478753  0.59773883  0.26767875     0.00800
C703        C  0.34313441  0.59360904  0.27242624    -0.11400
C704        C  0.36314850  0.55217596  0.27825565     0.03200
C705        C  0.33895546  0.51348129  0.26786020    -0.10800
H706        H  0.23025717  0.55824717  0.26184496     0.08800
H707        H  0.36513816  0.62282597  0.27861457     0.06400
H708        H  0.35704890  0.48173977  0.27091455     0.06200
C709        C  0.71706032  0.78159009  0.45888230     0.03300
C710        C  0.74264277  0.79541504  0.49842314    -0.12900
C711        C  0.71880689  0.80203199  0.54149085     0.00800
C712        C  0.67082977  0.79878724  0.54340350    -0.11400
C713        C  0.64729990  0.77733130  0.50837125     0.03200
C714        C  0.66971856  0.77028816  0.46553506    -0.10800
H715        H  0.77994632  0.80023096  0.49584313     0.08800
H716        H  0.65252746  0.80657442  0.57556242     0.06400
H717        H  0.65039576  0.75518675  0.43771991     0.06200
C718        C  0.77841473  0.36089646  0.46389664     0.03300
C719        C  0.78080768  0.40764821  0.46486186    -0.12900
C720        C  0.76924109  0.43145285  0.50492239     0.00800
C721        C  0.76936505  0.40967252  0.54709801    -0.11400
C722        C  0.77597693  0.36294122  0.54951599     0.03200
C723        C  0.77897048  0.33758789  0.50699345    -0.10800
H724        H  0.78369250  0.42563595  0.43260147     0.08800
H725        H  0.76111774  0.42887754  0.57819195     0.06400
H726        H  0.77961783  0.30112030  0.50746687     0.06200
C727        C  0.27425435  0.74351817  0.47502540     0.03300
C728        C  0.27967219  0.69647263  0.47692162    -0.12900
C729        C  0.27377177  0.67341765  0.51834007     0.00800
C730        C  0.25963262  0.69698506  0.55775682    -0.11400
C731        C  0.26144394  0.74380285  0.55922765     0.03200
C732        C  0.26653169  0.76786019  0.51724154    -0.10800
H733        H  0.28963137  0.67761811  0.44612980     0.08800
H734        H  0.25290391  0.67889236  0.58947167     0.06400
H735        H  0.26614740  0.80436165  0.51754336     0.06200
C736        C  0.27937360  0.32416729  0.45978745     0.03300
C737        C  0.25393687  0.33053878  0.50212636    -0.12900
C738        C  0.27866752  0.33502458  0.54386096     0.00800
C739        C  0.32771554  0.33335397  0.54140221    -0.11400
C740        C  0.35246653  0.32795774  0.50012835     0.03200
C741        C  0.32795776  0.31929727  0.46064689    -0.10800
H742        H  0.21652008  0.33375405  0.50236395     0.08800
H743        H  0.34759753  0.33712384  0.57215727     0.06400
H744        H  0.34737884  0.31200745  0.42912852     0.06200
O745        O  0.94924149  0.98267960  0.92934248    -0.86400
O746        O  0.19275067  0.04243733  0.99966602    -0.86500
O747        O  0.08566869  0.00081476  0.86522174    -0.88200
O748        O  0.08095785  0.93387763  0.99805626    -0.87000
O749        O  0.04284397  0.95511824  0.06501932    -0.86500
O750        O  0.08857039  0.07305026  0.83720938    -0.87900
O751        O  0.16064047  0.98706795  0.95371020    -0.86400
O752        O  0.01870015  0.94480189  0.92783088    -0.86000
Zr753      Zr  0.07837706  0.99931731  0.94869758     2.84300
O754        O  0.09855471  0.02864454  0.02002152    -1.08000
O755        O  0.03278956  0.05124523  0.91268321    -1.08700
C756        C  0.97402468  0.94660392  0.92632892     1.06700
C757        C  0.19447994  0.00579716  0.97525413     1.06700
C758        C  0.08661155  0.02989683  0.83243335     1.09700
C759        C  0.06297334  0.92591304  0.03819101     1.07400
H760        H  0.14619509  0.06099726  0.92339594     0.33000
O761        O  0.11859131  0.06762507  0.94153964    -1.28900
H762        H  0.99449825  0.98206568  0.00017249     0.32700
O763        O  0.01105946  0.00965218  0.99336103    -1.30600
O764        O  0.13874601  0.17848125  0.04200140    -0.86400
O765        O  0.90820966  0.12126716  0.96002319    -0.87900
O766        O  0.15898405  0.13378576  0.89931334    -0.86400
O767        O  0.10204922  0.02040212  0.10737741    -0.86500
O768        O  0.95172214  0.01158429  0.07650147    -0.86200
O769        O  0.01552676  0.12201111  0.84586215    -0.86000
O770        O  0.03020146  0.22261859  0.97540564    -0.86400
O771        O  0.98849517  0.14783513  0.09967873    -0.85800
O772        O  0.06561307  0.20102561  0.90699083    -0.86900
O773        O  0.00383500  0.07807432  0.12924774    -0.86100
O774        O  0.19405160  0.13218668  0.96919487    -0.86500
O775        O  0.95615675  0.07704038  0.87454716    -0.86200
O776        O  0.90988207  0.03617252  0.01536798    -0.85800
O777        O  0.14664375  0.08190960  0.09155657    -0.86200
O778        O  0.06685947  0.20870902  0.05678262    -0.86500
O779        O  0.94192318  0.17529490  0.00561513    -0.87900
Zr780      Zr  0.13395542  0.09955381  0.01415758     2.83100
Zr781      Zr  0.96419057  0.06013545  0.95517055     2.83500
Zr782      Zr  0.07379505  0.11968932  0.90461694     2.84100
Zr783      Zr  0.03167195  0.03586856  0.06480207     2.83400
Zr784      Zr  0.01902803  0.15479345  0.02075395     2.84200
O785        O  0.98211929  0.08587830  0.02847374    -1.08400
O786        O  0.08779264  0.14949783  0.97699038    -1.07900
C787        C  0.11106445  0.21080301  0.05474361     1.06700
C788        C  0.90947544  0.16026285  0.98020199     1.09300
C789        C  0.19478937  0.13568474  0.92558248     1.06900
C790        C  0.14062579  0.04283309  0.10845957     1.07200
C791        C  0.91362172  0.01959096  0.05589387     1.06800
C792        C  0.97703167  0.09975377  0.84230422     1.06400
C793        C  0.04901701  0.23066422  0.93561895     1.06800
C794        C  0.98891400  0.11855509  0.13228726     1.06300
H795        H  0.98592888  0.15032455  0.93032222     0.33000
O796        O  0.00398730  0.12881325  0.94668207    -1.29500
H797        H  0.07421471  0.12006884  0.08987560     0.33000
O798        O  0.06743648  0.10717629  0.06011419    -1.30900
O799        O  0.47638665  0.61879206  0.63825060    -0.86400
O800        O  0.55814642  0.39996672  0.51868865    -0.86500
O801        O  0.46210999  0.47427770  0.63018374    -0.88200
O802        O  0.60605135  0.51751766  0.63108631    -0.87000
O803        O  0.64827184  0.56324014  0.58222124    -0.86500
O804        O  0.40067320  0.49313038  0.58584377    -0.87900
O805        O  0.57847525  0.45174191  0.56742346    -0.86400
O806        O  0.51494633  0.55702026  0.66443104    -0.86000
Zr807      Zr  0.52954882  0.51148775  0.59748381     2.84300
O808        O  0.58108307  0.50655239  0.53608471    -1.08000
O809        O  0.46461314  0.54868420  0.57165413    -1.08700
C810        C  0.49212045  0.59364960  0.67013383     1.06700
C811        C  0.56257090  0.41233454  0.56030561     1.06700
C812        C  0.41944999  0.48441688  0.62448718     1.09700
C813        C  0.64382521  0.53776876  0.61732859     1.07400
H814        H  0.48177182  0.44422859  0.54652605     0.33000
O815        O  0.49298748  0.47329157  0.53628507    -1.28900
H816        H  0.56256759  0.60164941  0.60559129     0.32700
O817        O  0.54844716  0.58586121  0.58019086    -1.30600
O818        O  0.55671307  0.47291862  0.39121986    -0.86400
O819        O  0.46829433  0.68664032  0.50829593    -0.87900
O820        O  0.42014374  0.43449427  0.48832622    -0.86400
O821        O  0.66356039  0.53258769  0.49440318    -0.86500
O822        O  0.60658656  0.65755977  0.54711989    -0.86200
O823        O  0.36491501  0.55932091  0.53133321    -0.86000
O824        O  0.44030623  0.57185116  0.39287551    -0.86400
O825        O  0.58164221  0.60966688  0.39589310    -0.85800
O826        O  0.39590602  0.52082069  0.43387740    -0.86900
O827        O  0.63104444  0.62231138  0.45473640    -0.86100
O828        O  0.48925651  0.40889593  0.45725531    -0.86500
O829        O  0.39790376  0.62211775  0.56504502    -0.86200
O830        O  0.53425615  0.68403064  0.56838057    -0.85800
O831        O  0.63121336  0.46609440  0.46773150    -0.86200
O832        O  0.53101054  0.54116527  0.36547263    -0.86500
O833        O  0.49354041  0.66386172  0.43622316    -0.87900
Zr834      Zr  0.54711485  0.46760295  0.47402776     2.83100
Zr835      Zr  0.48194152  0.62195669  0.55491192     2.83500
Zr836      Zr  0.42993243  0.51298200  0.50950018     2.84100
Zr837      Zr  0.60129249  0.58061024  0.51916700     2.83400
Zr838      Zr  0.50966119  0.58381842  0.43289639     2.84200
O839        O  0.53848105  0.62104858  0.49597299    -1.08400
O840        O  0.48485989  0.50989624  0.44961143    -1.07900
C841        C  0.54873007  0.50192901  0.35972497     1.06700
C842        C  0.48039569  0.69388062  0.46623123     1.09300
C843        C  0.44600687  0.40399414  0.46927583     1.06900
C844        C  0.66564881  0.49271065  0.47689327     1.07200
C845        C  0.57810245  0.68857394  0.56046789     1.06800
C846        C  0.36301772  0.59767054  0.55234294     1.06400
C847        C  0.40649707  0.54374203  0.39750002     1.06800
C848        C  0.62244322  0.61521839  0.41230838     1.06300
H849        H  0.42499368  0.60360502  0.47850284     0.33000
O850        O  0.45098343  0.58696907  0.48965076    -1.29500
H851        H  0.59485990  0.53790244  0.43337513     0.33000
O852        O  0.57110721  0.54110036  0.45704363    -1.30900
C853        C  0.42285067  0.36043686  0.46159210    -0.16300
C854        C  0.40270195  0.34044199  0.49855317    -0.31500
H855        H  0.40935716  0.35544947  0.42746776     0.12700
H856        H  0.41824420  0.34734006  0.53168253     0.13300
C857        C  0.31796705  0.61809605  0.55946772    -0.16300
C858        C  0.29334054  0.62787240  0.52225221    -0.31500
H859        H  0.31500882  0.63842972  0.59061944     0.12700
H860        H  0.30038099  0.60928595  0.49039420     0.13300
C861        C  0.74194406  0.47281221  0.50139362    -0.16300
C862        C  0.71105862  0.47457732  0.46761031    -0.31500
H863        H  0.73648207  0.49330412  0.53228856     0.12700
H864        H  0.71251065  0.45135222  0.43852637     0.13300
C865        C  0.60391409  0.75293242  0.51973964    -0.16300
C866        C  0.59741239  0.73356055  0.56111762    -0.31500
H867        H  0.58473469  0.73942588  0.49120134     0.12700
H868        H  0.61888932  0.74185694  0.59015751     0.13300
C869        C  0.39580283  0.54957541  0.31520016    -0.16300
C870        C  0.37903892  0.53692360  0.35693643    -0.31500
H871        H  0.42992880  0.56514260  0.31053644     0.12700
H872        H  0.34427113  0.52253825  0.36113945     0.13300
C873        C  0.52157957  0.75270542  0.42682544    -0.16300
C874        C  0.48330820  0.74036958  0.45123157    -0.31500
H875        H  0.55062341  0.72953388  0.42488133     0.12700
H876        H  0.45391497  0.76233924  0.45744614     0.13300
C877        C  0.69788364  0.58153374  0.39990033    -0.16300
C878        C  0.66178335  0.60356886  0.38246408    -0.31500
H879        H  0.70218917  0.57772244  0.43643121     0.12700
H880        H  0.65817523  0.60533167  0.34541380     0.13300
C881        C  0.52614920  0.48643390  0.28228340    -0.16300
C882        C  0.55983523  0.48751631  0.31334402    -0.31500
H883        H  0.49570359  0.50733644  0.28816200     0.12700
H884        H  0.58895203  0.46463580  0.31081314     0.13300
C885        C  0.72794118  0.54465353  0.62629583    -0.16300
C886        C  0.68568025  0.53174830  0.64324408    -0.31500
H887        H  0.73240890  0.55950724  0.59249480     0.12700
H888        H  0.68169084  0.51844459  0.67781634     0.13300
C889        C  0.53920931  0.38841398  0.59846989    -0.16300
C890        C  0.53157382  0.41145643  0.63787849    -0.31500
H891        H  0.52937811  0.35308170  0.59506230     0.12700
H892        H  0.54370841  0.44604020  0.64131006     0.13300
C893        C  0.41036701  0.51668396  0.70083722    -0.16300
C894        C  0.39152498  0.49408275  0.66539182    -0.31500
H895        H  0.44741404  0.52116574  0.70391526     0.12700
H896        H  0.35391923  0.49207212  0.66280692     0.13300
C897        C  0.52148238  0.61875915  0.74235993    -0.16300
C898        C  0.48449558  0.60980129  0.71664460    -0.31500
H899        H  0.55341687  0.60041359  0.73504687     0.12700
H900        H  0.45328755  0.62952287  0.72095634     0.13300
C901        C  0.13154822  0.25478884  0.06287603    -0.16300
C902        C  0.13461887  0.28281940  0.02673151    -0.31500
H903        H  0.15799724  0.25539897  0.08849139     0.12700
H904        H  0.10893509  0.27941785  0.00014879     0.13300
C905        C  0.22351259  0.03795030  0.11212458    -0.16300
C906        C  0.18154753  0.02395020  0.12863592    -0.31500
H907        H  0.22636015  0.05779925  0.08101530     0.12700
H908        H  0.17777763  0.00588917  0.16080009     0.13300
C909        C  0.00343047  0.12778816  0.21273386    -0.16300
C910        C  0.97507869  0.13446129  0.17748600    -0.31500
H911        H  0.03160643  0.10375856  0.20911194     0.12700
H912        H  0.95064196  0.16207663  0.17848137     0.13300
C913        C  0.87130646  0.01268389  0.08320560    -0.16300
C914        C  0.83925163  0.04535436  0.08620051    -0.31500
H915        H  0.87201030  0.98639420  0.10887854     0.12700
H916        H  0.84256410  0.07466129  0.06417345     0.13300
C917        C  0.02834519  0.86370260  0.07945403    -0.16300
C918        C  0.06528852  0.87999259  0.05584214    -0.31500
H919        H  0.99571280  0.88172775  0.07740176     0.12700
H920        H  0.09796679  0.86217459  0.05340056     0.13300
C921        C  0.26298494  0.09362714  0.90622596    -0.16300
C922        C  0.24015071  0.13332053  0.90329333    -0.31500
H923        H  0.25451314  0.07147374  0.93471600     0.12700
H924        H  0.24485037  0.15511911  0.87396816     0.13300
C925        C  0.03817686  0.98851598  0.78249757    -0.16300
C926        C  0.07880953  0.01105194  0.78676498    -0.31500
H927        H  0.00892902  0.00020189  0.80333908     0.12700
H928        H  0.10929592  0.00251755  0.76593813     0.13300
C929        C  0.01309724  0.28937703  0.89637953    -0.16300
C930        C  0.05018121  0.27711837  0.91968543    -0.31500
H931        H  0.97954479  0.28293988  0.91332737     0.12700
H932        H  0.08430049  0.28797479  0.90741508     0.13300
C933        C  0.93206723  0.06050951  0.78605930    -0.16300
C934        C  0.95408119  0.09888384  0.79806392    -0.31500
H935        H  0.93965049  0.03004221  0.80466976     0.12700
H936        H  0.95028943  0.13008378  0.77950067     0.13300
C937        C  0.26788943  0.97968754  0.00571469    -0.16300
C938        C  0.23770775  0.98134255  0.97145370    -0.31500
H939        H  0.26492878  0.00304473  0.03449062     0.12700
H940        H  0.23813618  0.95539695  0.94471889     0.13300
C941        C  0.87222342  0.19165676  0.97332668    -0.16300
C942        C  0.87874815  0.23596251  0.98262206    -0.31500
H943        H  0.83858905  0.17852174  0.96299350     0.12700
H944        H  0.91172621  0.24951316  0.99422918     0.13300
C945        C  0.94864559  0.90399468  0.93026508    -0.16300
C946        C  0.94193327  0.88624486  0.97275453    -0.31500
H947        H  0.92938008  0.89230164  0.90087086     0.12700
H948        H  0.95885877  0.90226842  0.00178489     0.13300
loop_ 
_geom_bond_atom_site_label_1 
_geom_bond_atom_site_label_2 
_geom_bond_distance 
_geom_bond_site_symmetry_2 
_ccdc_geom_bond_type 
C1            C2   1.436   1_554  A
C1            C6   1.418       .  A
C1          C334   1.521       .  S
C2            C3   1.428       .  A
C2            H7   1.082       .  S
C3            C4   1.392       .  A
C3          C595   1.495       .  S
C4            C5   1.386       .  A
C4            H8   1.084       .  S
C5            C6   1.407   1_556  A
C5          C946   1.485       .  S
C6            H9   1.084       .  S
C10          C11   1.449       .  A
C10          C15   1.404       .  A
C10         C255   1.519       .  S
C11          C12   1.446   1_554  A
C11          H16   1.082       .  S
C12          C13   1.391       .  A
C12         C529   1.504       .  S
C13          C14   1.366       .  A
C13          H17   1.082       .  S
C14          C15   1.375   1_556  A
C14         C942   1.444       .  S
C15          H18   1.083       .  S
C19          C20   1.402       .  A
C19          C24   1.426       .  A
C19         C202   1.490       .  S
C20          C21   1.394       .  A
C20          H25   1.081       .  S
C21          C22   1.395   1_554  A
C21         C937   1.468       .  S
C22          C23   1.391       .  A
C22          H26   1.086       .  S
C23          C24   1.420   1_556  A
C23         C463   1.483       .  S
C24          H27   1.083       .  S
C28          C29   1.419       .  A
C28          C33   1.405       .  A
C28         C527   1.484       .  S
C29          C30   1.421       .  A
C29          H34   1.083       .  S
C30          C31   1.398       .  A
C30         C594   1.477   1_545  S
C31          C32   1.388       .  A
C31          H35   1.086   1_545  S
C32          C33   1.390       .  A
C32         C933   1.469       .  S
C33          H36   1.082       .  S
C37          C38   1.404       .  A
C37          C42   1.430   1_655  A
C37         C528   1.494       .  S
C38          C39   1.386   1_655  A
C38          H43   1.085       .  S
C39          C40   1.398       .  A
C39         C929   1.490       .  S
C40          C41   1.407       .  A
C40          H44   1.079       .  S
C41          C42   1.426       .  A
C41         C397   1.502       .  S
C42          H45   1.082       .  S
C46          C47   1.424   1_655  A
C46          C51   1.409       .  A
C46         C593   1.494       .  S
C47          C48   1.418       .  A
C47          H52   1.083       .  S
C48          C49   1.390       .  A
C48         C462   1.478       .  S
C49          C50   1.391       .  A
C49          H53   1.081       .  S
C50          C51   1.402   1_455  A
C50         C925   1.479       .  S
C51          H54   1.084       .  S
C55          C56   1.386       .  A
C55          C60   1.416       .  A
C55         C395   1.475       .  S
C56          C57   1.382       .  A
C56          H61   1.085       .  S
C57          C58   1.408       .  A
C57         C921   1.477       .  S
C58          C59   1.411       .  A
C58          H62   1.081       .  S
C59          C60   1.427       .  A
C59         C461   1.492   1_545  S
C60          H63   1.083       .  S
C64          C65   1.399       .  A
C64          C69   1.433   1_655  A
C64         C326   1.502       .  S
C65          C66   1.388   1_655  A
C65          H70   1.087       .  S
C66          C67   1.398       .  A
C66         C917   1.477       .  S
C67          C68   1.408       .  A
C67          H71   1.082       .  S
C68          C69   1.435       .  A
C68         C209   1.510       .  S
C69          H72   1.082       .  S
C73          C74   1.413       .  A
C73          C78   1.439       .  A
C73         C254   1.517       .  S
C74          C75   1.393       .  A
C74          H79   1.084       .  S
C75          C76   1.383       .  A
C75         C914   1.473       .  S
C76          C77   1.392       .  A
C76          H80   1.086   1_545  S
C77          C78   1.435       .  A
C77         C341   1.498   1_545  S
C78          H81   1.082       .  S
C82          C83   1.388       .  A
C82          C87   1.437   1_655  A
C82         C256   1.499       .  S
C83          C84   1.386   1_655  A
C83          H88   1.087       .  S
C84          C85   1.393       .  A
C84         C909   1.461       .  S
C85          C86   1.401       .  A
C85          H89   1.085       .  S
C86          C87   1.440       .  A
C86         C134   1.507       .  S
C87          H90   1.082       .  S
Zr91         O92   2.444       .  S
Zr91         O93   2.460       .  S
Zr91         O94   2.497       .  S
Zr91         O97   2.436       .  S
Zr91         O99   2.369       .  S
Zr91        O100   2.387       .  S
Zr91        O101   2.415       .  S
Zr91        O102   2.398       .  S
O92         H148   0.991       .  S
O92         H156   0.990       .  S
O93         C113   1.292       .  A
O94         C115   1.298       .  A
O95        Zr105   2.469       .  S
O95         C114   1.287       .  A
O96        Zr104   2.467       .  S
O96         C115   1.289       .  A
O97         C114   1.289       .  A
O98        Zr106   2.420       .  S
O98         C113   1.275       .  A
O99        Zr104   2.413       .  S
O99        Zr106   2.399       .  S
O100       Zr105   2.411       .  S
O100       Zr106   2.376       .  S
O100        H135   0.966       .  S
O101       Zr104   2.407       .  S
O101       Zr121   2.397       .  S
O101        H138   0.963       .  S
O102       Zr105   2.387       .  S
O102       Zr121   2.378       .  S
Zr103       O128   2.445       .  S
Zr103       O122   2.470       .  S
Zr103       O130   2.510       .  S
Zr103       O118   2.517       .  S
Zr103       O109   2.414       .  S
Zr103       O110   2.420       .  S
Zr103       O111   2.378       .  S
Zr103       O112   2.387       .  S
Zr104       O123   2.436       .  S
Zr104       O116   2.437       .  S
Zr104       O117   2.471       .  S
Zr104       O110   2.421       .  S
Zr104       O111   2.409       .  S
Zr105       O107   2.437       .  S
Zr105       O129   2.438       .  S
Zr105       O131   2.446       .  S
Zr105       O109   2.405       .  S
Zr105       O112   2.414       .  S
Zr106       O132   2.436       .  S
Zr106       O133   2.436       .  S
Zr106       O108   2.438       .  S
Zr106       O109   2.398       .  S
Zr106       O110   2.382       .  S
O107        H144   0.990       .  S
O108        H139   0.990       .  S
O108        H153   0.990       .  S
O110        H136   0.960       .  S
O111       Zr121   2.390       .  S
O112       Zr121   2.387       .  S
O112        H137   0.966       .  S
C113        C700   1.487       .  S
C114        C736   1.493       .  S
C115        C675   1.506       .  S
O116        H152   0.990       .  S
O117        C119   1.288       .  A
O118        C119   1.307       .  A
C119        C364   1.512       .  S
O120       Zr121   2.439       .  S
O120        H149   0.990       .  S
Zr121       O124   2.436       .  S
Zr121       O125   2.441       .  S
Zr121       O126   2.413       .  S
O122        C127   1.293       .  A
O123        H140   0.990       .  S
O123        H155   0.990       .  S
O124        H141   0.990       .  S
O125        H145   0.990       .  S
O125        H154   0.990       .  S
O126        C127   1.274       .  A
C127        C157   1.496       .  S
O128        H147   0.990       .  S
O128        H151   0.989       .  S
O129        H143   0.990       .  S
O129        H150   0.990       .  S
O130        C134   1.302       .  A
O131        C134   1.284       .  A
O132        H142   0.990       .  S
O133        H146   0.990       .  S
C157        C158   1.435       .  A
C157        C162   1.400       .  A
C158        C159   1.432       .  A
C158        H163   1.082       .  S
C159        C160   1.390       .  A
C159        C194   1.484   1_545  S
C160        C161   1.370       .  A
C160        H164   1.084   1_545  S
C161        C162   1.383       .  A
C161        C905   1.443       .  S
C162        H165   1.085       .  S
Zr166       O167   2.442       .  S
Zr166       O168   2.474       .  S
Zr166       O169   2.498       .  S
Zr166       O172   2.445       .  S
Zr166       O174   2.370       .  S
Zr166       O175   2.392       .  S
Zr166       O176   2.412       .  S
Zr166       O177   2.408       .  S
O167        H223   0.990       .  S
O167        H231   0.990       .  S
O168        C188   1.293       .  A
O169        C190   1.301       .  A
O170       Zr180   2.486       .  S
O170        C189   1.290       .  A
O171       Zr179   2.434       .  S
O171        C190   1.280       .  A
O172        C189   1.292       .  A
O173       Zr181   2.438       .  S
O173        C188   1.281       .  A
O174       Zr179   2.411       .  S
O174       Zr181   2.389       .  S
O175       Zr180   2.419       .  S
O175       Zr181   2.382       .  S
O175        H210   0.966       .  S
O176       Zr179   2.406       .  S
O176       Zr196   2.393       .  S
O176        H213   0.963       .  S
O177       Zr180   2.398       .  S
O177       Zr196   2.377       .  S
Zr178       O203   2.438       .  S
Zr178       O197   2.474       .  S
Zr178       O205   2.453       .  S
Zr178       O193   2.467       .  S
Zr178       O184   2.406       .  S
Zr178       O185   2.408       .  S
Zr178       O186   2.367       .  S
Zr178       O187   2.385       .  S
Zr179       O198   2.433       .  S
Zr179       O191   2.438       .  S
Zr179       O192   2.433       .  S
Zr179       O185   2.410       .  S
Zr179       O186   2.400       .  S
Zr180       O182   2.437       .  S
Zr180       O204   2.433       .  S
Zr180       O206   2.483       .  S
Zr180       O184   2.404       .  S
Zr180       O187   2.408       .  S
Zr181       O207   2.438       .  S
Zr181       O208   2.434       .  S
Zr181       O183   2.434       .  S
Zr181       O184   2.404       .  S
Zr181       O185   2.394       .  S
O182        H219   0.990       .  S
O183        H214   0.990       .  S
O183        H228   0.990       .  S
O185        H211   0.965       .  S
O186       Zr196   2.388       .  S
O187       Zr196   2.378       .  S
O187        H212   0.966       .  S
C188        C727   1.501       .  S
C189        C702   1.512       .  S
C190        C695   1.492       .  S
O191        H227   0.990       .  S
O192        C194   1.280       .  A
O193        C194   1.295       .  A
O195       Zr196   2.439       .  S
O195        H224   0.990       .  S
Zr196       O199   2.437       .  S
Zr196       O200   2.436       .  S
Zr196       O201   2.410       .  S
O197        C202   1.293       .  A
O198        H215   0.990       .  S
O198        H230   0.990       .  S
O199        H216   0.991       .  S
O200        H220   0.990       .  S
O200        H229   0.990       .  S
O201        C202   1.276       .  A
O203        H222   0.990       .  S
O203        H226   0.990       .  S
O204        H218   0.990       .  S
O204        H225   0.990       .  S
O205        C209   1.292       .  A
O206        C209   1.292       .  A
O207        H217   0.990       .  S
O208        H221   0.990       .  S
Zr232       O233   2.439       .  S
Zr232       O234   2.461       .  S
Zr232       O235   2.504       .  S
Zr232       O238   2.470       .  S
Zr232       O240   2.374       .  S
Zr232       O241   2.386       .  S
Zr232       O242   2.411       .  S
Zr232       O243   2.407       .  S
O233        H289   0.989       .  S
O233        H297   0.990       .  S
O234        C254   1.292       .  A
O235        C256   1.301       .  A
O236       Zr246   2.466       .  S
O236        C255   1.286       .  A
O237       Zr245   2.436       .  S
O237        C256   1.280       .  A
O238        C255   1.298       .  A
O239       Zr247   2.472       .  S
O239        C254   1.287       .  A
O240       Zr245   2.402       .  S
O240       Zr247   2.382       .  S
O241       Zr246   2.406       .  S
O241       Zr247   2.376       .  S
O241        H276   0.965       .  S
O242       Zr245   2.412       .  S
O242       Zr262   2.401       .  S
O242        H279   0.965       .  S
O243       Zr246   2.404       .  S
O243       Zr262   2.397       .  S
Zr244       O269   2.438       .  S
Zr244       O263   2.517       .  S
Zr244       O271   2.509       .  S
Zr244       O259   2.529       .  S
Zr244       O250   2.429       .  S
Zr244       O251   2.427       .  S
Zr244       O252   2.374       .  S
Zr244       O253   2.389       .  S
Zr245       O264   2.437       .  S
Zr245       O257   2.434       .  S
Zr245       O258   2.427       .  S
Zr245       O251   2.411       .  S
Zr245       O252   2.408       .  S
Zr246       O248   2.436       .  S
Zr246       O270   2.440       .  S
Zr246       O272   2.441       .  S
Zr246       O250   2.405       .  S
Zr246       O253   2.417       .  S
Zr247       O273   2.436       .  S
Zr247       O274   2.436       .  S
Zr247       O249   2.438       .  S
Zr247       O250   2.416       .  S
Zr247       O251   2.420       .  S
O248        H285   0.990       .  S
O249        H280   0.990       .  S
O249        H294   0.990       .  S
O251        H277   0.965       .  S
O252       Zr262   2.389       .  S
O253       Zr262   2.385       .  S
O253        H278   0.966       .  S
O257        H293   0.990       .  S
O258        C260   1.278       .  A
O259        C260   1.307       .  A
C260        C718   1.506       .  S
O261       Zr262   2.439       .  S
O261        H290   0.990       .  S
Zr262       O265   2.436       .  S
Zr262       O266   2.439       .  S
Zr262       O267   2.431       .  S
O263        C268   1.304       .  A
O264        H281   0.990       .  S
O264        H296   0.990       .  S
O265        H282   0.990       .  S
O266        H286   0.990       .  S
O266        H295   0.990       .  S
O267        C268   1.279       .  A
C268        C682   1.523       .  S
O269        H288   0.990       .  S
O269        H292   0.990       .  S
O270        H284   0.990       .  S
O270        H291   0.990       .  S
O271        C275   1.304       .  A
O272        C275   1.282       .  A
O273        H283   0.990       .  S
O274        H287   0.990       .  S
C275        C673   1.505       .  S
Zr298       O299   2.434       .  S
Zr298       O300   2.500       .  S
Zr298       O301   2.483       .  S
Zr298       O304   2.460       .  S
Zr298       O306   2.383       .  S
Zr298       O307   2.376       .  S
Zr298       O308   2.419       .  S
Zr298       O309   2.417       .  S
O299        H355   0.988       .  S
O299        H363   0.990       .  S
O300        C320   1.299       .  A
O301        C322   1.299       .  A
O302       Zr312   2.483       .  S
O302        C321   1.291       .  A
O303       Zr311   2.468       .  S
O303        C322   1.286       .  A
O304        C321   1.293       .  A
O305       Zr313   2.424       .  S
O305        C320   1.280       .  A
O306       Zr311   2.421       .  S
O306       Zr313   2.390       .  S
O307       Zr312   2.397       .  S
O307       Zr313   2.381       .  S
O307        H342   0.965       .  S
O308       Zr311   2.414       .  S
O308       Zr328   2.407       .  S
O308        H345   0.965       .  S
O309       Zr312   2.400       .  S
O309       Zr328   2.420       .  S
Zr310       O335   2.439       .  S
Zr310       O329   2.477       .  S
Zr310       O337   2.462       .  S
Zr310       O325   2.457       .  S
Zr310       O316   2.403       .  S
Zr310       O317   2.415       .  S
Zr310       O318   2.372       .  S
Zr310       O319   2.387       .  S
Zr311       O330   2.436       .  S
Zr311       O323   2.435       .  S
Zr311       O324   2.476       .  S
Zr311       O317   2.414       .  S
Zr311       O318   2.405       .  S
Zr312       O314   2.439       .  S
Zr312       O336   2.440       .  S
Zr312       O338   2.452       .  S
Zr312       O316   2.411       .  S
Zr312       O319   2.419       .  S
Zr313       O339   2.435       .  S
Zr313       O340   2.436       .  S
Zr313       O315   2.437       .  S
Zr313       O316   2.396       .  S
Zr313       O317   2.391       .  S
O314        H351   0.990       .  S
O315        H346   0.990       .  S
O315        H360   0.990       .  S
O317        H343   0.965       .  S
O318       Zr328   2.375       .  S
O319       Zr328   2.383       .  S
O319        H344   0.966       .  S
C320        C709   1.507       .  S
C321        C691   1.513       .  S
C322        C686   1.508       .  S
O323        H359   0.990       .  S
O324        C326   1.290       .  A
O325        C326   1.292       .  A
O327       Zr328   2.439       .  S
O327        H356   0.990       .  S
Zr328       O331   2.437       .  S
Zr328       O332   2.441       .  S
Zr328       O333   2.465       .  S
O329        C334   1.294       .  A
O330        H347   0.990       .  S
O330        H362   0.990       .  S
O331        H348   0.990       .  S
O332        H352   0.990       .  S
O332        H361   0.990       .  S
O333        C334   1.287       .  A
O335        H354   0.990       .  S
O335        H358   0.991       .  S
O336        H350   0.990       .  S
O336        H357   0.990       .  S
O337        C341   1.295       .  A
O338        C341   1.284       .  A
O339        H349   0.990       .  S
O340        H353   0.990       .  S
C364        C365   1.393       .  A
C364        C369   1.441   1_554  A
C365        C366   1.383       .  A
C365        H370   1.085       .  S
C366        C367   1.394   1_554  A
C366        C902   1.473       .  S
C367        C368   1.410       .  A
C367        H371   1.084       .  S
C368        C369   1.446       .  A
C368        C396   1.518       .  S
C369        H372   1.082       .  S
Zr373       O374   2.421       .  S
Zr373       O375   2.486       .  S
Zr373       O376   2.483       .  S
Zr373       O379   2.493       .  S
Zr373       O381   2.382       .  S
Zr373       O382   2.385       .  S
Zr373       O383   2.414       .  S
Zr373       O384   2.401       .  S
O374        H430   0.990       .  S
O374        H438   0.988       .  S
O375        C395   1.297       .  A
O376        C397   1.294       .  A
O377       Zr387   2.476       .  S
O377        C396   1.290       .  A
O378       Zr386   2.476       .  S
O378        C397   1.290       .  A
O379        C396   1.300       .  A
O380       Zr388   2.395       .  S
O380        C395   1.271       .  A
O381       Zr386   2.420       .  S
O381       Zr388   2.397       .  S
O382       Zr387   2.401       .  S
O382       Zr388   2.386       .  S
O382        H417   0.964       .  S
O383       Zr386   2.420       .  S
O383       Zr403   2.377       .  S
O383        H420   0.961       .  S
O384       Zr387   2.395       .  S
O384       Zr403   2.394       .  S
Zr385       O410   2.436       .  S
Zr385       O404   2.464       .  S
Zr385       O412   2.442       .  S
Zr385       O400   2.463       .  S
Zr385       O391   2.400       .  S
Zr385       O392   2.405       .  S
Zr385       O393   2.370       .  S
Zr385       O394   2.380       .  S
Zr386       O405   2.435       .  S
Zr386       O398   2.436       .  S
Zr386       O399   2.489       .  S
Zr386       O392   2.410       .  S
Zr386       O393   2.421       .  S
Zr387       O389   2.435       .  S
Zr387       O411   2.435       .  S
Zr387       O413   2.474       .  S
Zr387       O391   2.395       .  S
Zr387       O394   2.408       .  S
Zr388       O414   2.435       .  S
Zr388       O415   2.437       .  S
Zr388       O390   2.436       .  S
Zr388       O391   2.389       .  S
Zr388       O392   2.363       .  S
O389        H426   0.990       .  S
O390        H421   0.990       .  S
O390        H435   0.990       .  S
O392        H418   0.961       .  S
O393       Zr403   2.393       .  S
O394       Zr403   2.383       .  S
O394        H419   0.965       .  S
O398        H434   0.990       .  S
O399        C401   1.292       .  A
O400        C401   1.291       .  A
C401        C738   1.506       .  S
O402       Zr403   2.439       .  S
O402        H431   0.990       .  S
Zr403       O406   2.436       .  S
Zr403       O407   2.438       .  S
Zr403       O408   2.408       .  S
O404        C409   1.293       .  A
O405        H422   0.990       .  S
O405        H437   0.990       .  S
O406        H423   0.990       .  S
O407        H427   0.990       .  S
O407        H436   0.990       .  S
O408        C409   1.273       .  A
C409        C646   1.478       .  S
O410        H429   0.988       .  S
O410        H433   0.989       .  S
O411        H425   0.990       .  S
O411        H432   0.990       .  S
O412        C416   1.290       .  A
O413        C416   1.288       .  A
O414        H424   0.990       .  S
O415        H428   0.990       .  S
C416        C659   1.508       .  S
Zr439       O440   2.440       .  S
Zr439       O441   2.485       .  S
Zr439       O442   2.479       .  S
Zr439       O445   2.459       .  S
Zr439       O447   2.374       .  S
Zr439       O448   2.384       .  S
Zr439       O449   2.409       .  S
Zr439       O450   2.410       .  S
O440        H496   0.990       .  S
O440        H504   0.990       .  S
O441        C461   1.294       .  A
O442        C463   1.294       .  A
O443       Zr453   2.421       .  S
O443        C462   1.279       .  A
O444       Zr452   2.435       .  S
O444        C463   1.282       .  A
O445        C462   1.293       .  A
O446       Zr454   2.417       .  S
O446        C461   1.279       .  A
O447       Zr452   2.402       .  S
O447       Zr454   2.382       .  S
O448       Zr453   2.406       .  S
O448       Zr454   2.375       .  S
O448        H483   0.966       .  S
O449       Zr452   2.405       .  S
O449       Zr469   2.400       .  S
O449        H486   0.965       .  S
O450       Zr453   2.399       .  S
O450       Zr469   2.395       .  S
Zr451       O476   2.441       .  S
Zr451       O470   2.479       .  S
Zr451       O478   2.472       .  S
Zr451       O466   2.477       .  S
Zr451       O457   2.404       .  S
Zr451       O458   2.413       .  S
Zr451       O459   2.378       .  S
Zr451       O460   2.382       .  S
Zr452       O471   2.436       .  S
Zr452       O464   2.436       .  S
Zr452       O465   2.428       .  S
Zr452       O458   2.410       .  S
Zr452       O459   2.400       .  S
Zr453       O455   2.434       .  S
Zr453       O477   2.439       .  S
Zr453       O479   2.432       .  S
Zr453       O457   2.396       .  S
Zr453       O460   2.400       .  S
Zr454       O480   2.434       .  S
Zr454       O481   2.435       .  S
Zr454       O456   2.438       .  S
Zr454       O457   2.392       .  S
Zr454       O458   2.392       .  S
O455        H492   0.990       .  S
O456        H487   0.990       .  S
O456        H501   0.990       .  S
O458        H484   0.965       .  S
O459       Zr469   2.381       .  S
O460       Zr469   2.382       .  S
O460        H485   0.966       .  S
O464        H500   0.990       .  S
O465        C467   1.281       .  A
O466        C467   1.294       .  A
C467        C641   1.477       .  S
O468       Zr469   2.437       .  S
O468        H497   0.991       .  S
Zr469       O472   2.436       .  S
Zr469       O473   2.439       .  S
Zr469       O474   2.421       .  S
O470        C475   1.295       .  A
O471        H488   0.990       .  S
O471        H503   0.990       .  S
O472        H489   0.990       .  S
O473        H493   0.990       .  S
O473        H502   0.990       .  S
O474        C475   1.279       .  A
C475        C648   1.496       .  S
O476        H495   0.990       .  S
O476        H499   0.990       .  S
O477        H491   0.990       .  S
O477        H498   0.990       .  S
O478        C482   1.295       .  A
O479        C482   1.281       .  A
O480        H490   0.990       .  S
O481        H494   0.990       .  S
C482        C731   1.486       .  S
Zr505       O506   2.445       .  S
Zr505       O507   2.426       .  S
Zr505       O508   2.510       .  S
Zr505       O511   2.463       .  S
Zr505       O513   2.370       .  S
Zr505       O514   2.395       .  S
Zr505       O515   2.402       .  S
Zr505       O516   2.399       .  S
O506        H562   0.989       .  S
O506        H570   0.989       .  S
O507        C527   1.283       .  A
O508        C529   1.300       .  A
O509       Zr519   2.455       .  S
O509        C528   1.286       .  A
O510       Zr518   2.454       .  S
O510        C529   1.281       .  A
O511        C528   1.295       .  A
O512       Zr520   2.452       .  S
O512        C527   1.283       .  A
O513       Zr518   2.416       .  S
O513       Zr520   2.387       .  S
O514       Zr519   2.403       .  S
O514       Zr520   2.379       .  S
O514        H549   0.965       .  S
O515       Zr518   2.423       .  S
O515       Zr535   2.374       .  S
O515        H552   0.961       .  S
O516       Zr519   2.402       .  S
O516       Zr535   2.380       .  S
Zr517       O542   2.442       .  S
Zr517       O536   2.491       .  S
Zr517       O544   2.470       .  S
Zr517       O532   2.447       .  S
Zr517       O523   2.408       .  S
Zr517       O524   2.420       .  S
Zr517       O525   2.373       .  S
Zr517       O526   2.371       .  S
Zr518       O537   2.438       .  S
Zr518       O530   2.432       .  S
Zr518       O531   2.459       .  S
Zr518       O524   2.421       .  S
Zr518       O525   2.421       .  S
Zr519       O521   2.437       .  S
Zr519       O543   2.437       .  S
Zr519       O545   2.477       .  S
Zr519       O523   2.390       .  S
Zr519       O526   2.400       .  S
Zr520       O546   2.437       .  S
Zr520       O547   2.435       .  S
Zr520       O522   2.437       .  S
Zr520       O523   2.410       .  S
Zr520       O524   2.410       .  S
O521        H558   0.990       .  S
O522        H553   0.990       .  S
O522        H567   0.990       .  S
O524        H550   0.964       .  S
O525       Zr535   2.394       .  S
O526       Zr535   2.393       .  S
O526        H551   0.966       .  S
O530        H566   0.990       .  S
O531        C533   1.282       .  A
O532        C533   1.293       .  A
C533        C655   1.507       .  S
O534       Zr535   2.440       .  S
O534        H563   0.990       .  S
Zr535       O538   2.437       .  S
Zr535       O539   2.440       .  S
Zr535       O540   2.411       .  S
O536        C541   1.300       .  A
O537        H554   0.990       .  S
O537        H569   0.990       .  S
O538        H555   0.990       .  S
O539        H559   0.990       .  S
O539        H568   0.991       .  S
O540        C541   1.274       .  A
C541        C664   1.494       .  S
O542        H561   0.990       .  S
O542        H565   0.990       .  S
O543        H557   0.990       .  S
O543        H564   0.990       .  S
O544        C548   1.294       .  A
O545        C548   1.290       .  A
O546        H556   0.990       .  S
O547        H560   0.990       .  S
C548        C722   1.508       .  S
Zr571       O572   2.440       .  S
Zr571       O573   2.461       .  S
Zr571       O574   2.444       .  S
Zr571       O577   2.443       .  S
Zr571       O579   2.384       .  S
Zr571       O580   2.374       .  S
Zr571       O581   2.410       .  S
Zr571       O582   2.392       .  S
O572        H628   0.989       .  S
O572        H636   0.990       .  S
O573        C593   1.290       .  A
O574        C595   1.290       .  A
O575       Zr585   2.433       .  S
O575        C594   1.282       .  A
O576       Zr584   2.474       .  S
O576        C595   1.289       .  A
O577        C594   1.290       .  A
O578       Zr586   2.434       .  S
O578        C593   1.281       .  A
O579       Zr584   2.426       .  S
O579       Zr586   2.382       .  S
O580       Zr585   2.400       .  S
O580       Zr586   2.370       .  S
O580        H615   0.966       .  S
O581       Zr584   2.423       .  S
O581       Zr601   2.390       .  S
O581        H618   0.965       .  S
O582       Zr585   2.395       .  S
O582       Zr601   2.377       .  S
Zr583       O608   2.442       .  S
Zr583       O602   2.479       .  S
Zr583       O610   2.471       .  S
Zr583       O598   2.448       .  S
Zr583       O589   2.404       .  S
Zr583       O590   2.423       .  S
Zr583       O591   2.374       .  S
Zr583       O592   2.377       .  S
Zr584       O603   2.436       .  S
Zr584       O596   2.435       .  S
Zr584       O597   2.501       .  S
Zr584       O590   2.415       .  S
Zr584       O591   2.406       .  S
Zr585       O587   2.438       .  S
Zr585       O609   2.440       .  S
Zr585       O611   2.433       .  S
Zr585       O589   2.392       .  S
Zr585       O592   2.402       .  S
Zr586       O612   2.434       .  S
Zr586       O613   2.435       .  S
Zr586       O588   2.435       .  S
Zr586       O589   2.401       .  S
Zr586       O590   2.387       .  S
O587        H624   0.990       .  S
O588        H619   0.990       .  S
O588        H633   0.990       .  S
O590        H616   0.963       .  S
O591       Zr601   2.397       .  S
O592       Zr601   2.383       .  S
O592        H617   0.966       .  S
O596        H632   0.990       .  S
O597        C599   1.292       .  A
O598        C599   1.291       .  A
C599        C666   1.518       .  S
O600       Zr601   2.436       .  S
O600        H629   0.990       .  S
Zr601       O604   2.434       .  S
Zr601       O605   2.436       .  S
Zr601       O606   2.386       .  S
O602        C607   1.294       .  A
O603        H620   0.990       .  S
O603        H635   0.990       .  S
O604        H621   0.990       .  S
O605        H625   0.990       .  S
O605        H634   0.990       .  S
O606        C607   1.273       .  A
C607        C637   1.481       .  S
O608        H627   0.990       .  S
O608        H631   0.990       .  S
O609        H623   0.990       .  S
O609        H630   0.990       .  S
O610        C614   1.294       .  A
O611        C614   1.281       .  A
O612        H622   0.990       .  S
O613        H626   0.990       .  S
C614        C711   1.483       .  S
C637        C638   1.400       .  A
C637        C642   1.423       .  A
C638        C639   1.394       .  A
C638        H643   1.085       .  S
C639        C640   1.397       .  A
C639        C897   1.469       .  S
C640        C641   1.389       .  A
C640        H644   1.085       .  S
C641        C642   1.415       .  A
C642        H645   1.083       .  S
C646        C647   1.420       .  A
C646        C651   1.388       .  A
C647        C648   1.429       .  A
C647        H652   1.082       .  S
C648        C649   1.406       .  A
C649        C650   1.400       .  A
C649        H653   1.081       .  S
C650        C651   1.377       .  A
C650        C893   1.453       .  S
C651        H654   1.088       .  S
C655        C656   1.393       .  A
C655        C660   1.437       .  A
C656        C657   1.370       .  A
C656        H661   1.085       .  S
C657        C658   1.381       .  A
C657        C890   1.447       .  S
C658        C659   1.413       .  A
C658        H662   1.081       .  S
C659        C660   1.441       .  A
C660        H663   1.082       .  S
C664        C665   1.444       .  A
C664        C669   1.395       .  A
C665        C666   1.441       .  A
C665        H670   1.082       .  S
C666        C667   1.410       .  A
C667        C668   1.378       .  A
C667        H671   1.083       .  S
C668        C669   1.371       .  A
C668        C885   1.457       .  S
C669        H672   1.086       .  S
C673        C674   1.435       .  A
C673        C678   1.389       .  A
C674        C675   1.440       .  A
C674        H679   1.082       .  S
C675        C676   1.402       .  A
C676        C677   1.396       .  A
C676        H680   1.085       .  S
C677        C678   1.393       .  A
C677        C881   1.471       .  S
C678        H681   1.085       .  S
C682        C683   1.405       .  A
C682        C687   1.451       .  A
C683        C684   1.394       .  A
C683        H688   1.083       .  S
C684        C685   1.374       .  A
C684        C877   1.447       .  S
C685        C686   1.385       .  A
C685        H689   1.088       .  S
C686        C687   1.443       .  A
C687        H690   1.082       .  S
C691        C692   1.405       .  A
C691        C696   1.435       .  A
C692        C693   1.395       .  A
C692        H697   1.084       .  S
C693        C694   1.384       .  A
C693        C873   1.466       .  S
C694        C695   1.387       .  A
C694        H698   1.082       .  S
C695        C696   1.437       .  A
C696        H699   1.082       .  S
C700        C701   1.437       .  A
C700        C705   1.394       .  A
C701        C702   1.437       .  A
C701        H706   1.082       .  S
C702        C703   1.409       .  A
C703        C704   1.377       .  A
C703        H707   1.083       .  S
C704        C705   1.370       .  A
C704        C869   1.449       .  S
C705        H708   1.087       .  S
C709        C710   1.435       .  A
C709        C714   1.409       .  A
C710        C711   1.425       .  A
C710        H715   1.082       .  S
C711        C712   1.383       .  A
C712        C713   1.383       .  A
C712        H716   1.085       .  S
C713        C714   1.403       .  A
C713        C865   1.468       .  S
C714        H717   1.083       .  S
C718        C719   1.387       .  A
C718        C723   1.439       .  A
C719        C720   1.390       .  A
C719        H724   1.086       .  S
C720        C721   1.393       .  A
C720        C861   1.470       .  S
C721        C722   1.404       .  A
C721        H725   1.086       .  S
C722        C723   1.441       .  A
C723        H726   1.082       .  S
C727        C728   1.407       .  A
C727        C732   1.431       .  A
C728        C729   1.398       .  A
C728        H733   1.084       .  S
C729        C730   1.390       .  A
C729        C858   1.476       .  S
C730        C731   1.389       .  A
C730        H734   1.085       .  S
C731        C732   1.425       .  A
C732        H735   1.083       .  S
C736        C737   1.428       .  A
C736        C741   1.409       .  A
C737        C738   1.427       .  A
C737        H742   1.082       .  S
C738        C739   1.413       .  A
C739        C740   1.389       .  A
C739        H743   1.078       .  S
C740        C741   1.383       .  A
C740        C854   1.488       .  S
C741        H744   1.082       .  S
O745       Zr781   2.445   1_565  S
O745        C756   1.294       .  A
O746       Zr780   2.434   1_556  S
O746        C757   1.292       .  A
O747       Zr753   2.433   1_545  S
O747        C758   1.293       .  A
O748       Zr753   2.431       .  S
O748        C759   1.288   1_556  A
O749       Zr783   2.420   1_565  S
O749        C759   1.291       .  A
O750       Zr782   2.417       .  S
O750        C758   1.286       .  A
O751       Zr753   2.408       .  S
O751        C757   1.289   1_565  A
O752       Zr753   2.429       .  S
O752        C756   1.290   1_455  A
Zr753       O754   2.325   1_566  S
Zr753       O755   2.312   1_565  S
Zr753       O763   2.326   1_565  S
Zr753       O761   2.330   1_565  S
O754       Zr780   2.332       .  S
O754       Zr783   2.307       .  S
O755       Zr781   2.318   1_455  S
O755       Zr782   2.347       .  S
C756        C945   1.456       .  S
C757        C938   1.449   1_545  S
C758        C926   1.457       .  S
C759        C918   1.464       .  S
H760        O761   0.963       .  S
O761       Zr780   2.355   1_556  S
O761       Zr782   2.315       .  S
H762        O763   0.962   1_664  S
O763       Zr781   2.337   1_455  S
O763       Zr783   2.300   1_556  S
O764       Zr780   2.471       .  S
O764        C787   1.298       .  A
O765       Zr781   2.440       .  S
O765        C788   1.291       .  A
O766       Zr782   2.484       .  S
O766        C789   1.299       .  A
O767       Zr783   2.452       .  S
O767        C790   1.289       .  A
O768       Zr783   2.420   1_655  S
O768        C791   1.289       .  A
O769       Zr782   2.427       .  S
O769        C792   1.289   1_455  A
O770       Zr784   2.432   1_556  S
O770        C793   1.289       .  A
O771       Zr784   2.447   1_655  S
O771        C794   1.294       .  A
O772       Zr782   2.426       .  S
O772        C793   1.291       .  A
O773       Zr783   2.369       .  S
O773        C794   1.281   1_455  A
O774       Zr780   2.348   1_556  S
O774        C789   1.274       .  A
O775       Zr781   2.422       .  S
O775        C792   1.293       .  A
O776       Zr781   2.425   1_554  S
O776        C791   1.290       .  A
O777       Zr780   2.356       .  S
O777        C790   1.272       .  A
O778       Zr784   2.352       .  S
O778        C787   1.273       .  A
O779       Zr784   2.362   1_655  S
O779        C788   1.279   1_554  A
Zr780       O786   2.299   1_554  S
Zr780       O798   2.319       .  S
Zr781       O785   2.325   1_556  S
Zr781       O796   2.338   1_655  S
Zr782       O786   2.317       .  S
Zr782       O796   2.342       .  S
Zr783       O785   2.348   1_455  S
Zr783       O798   2.345       .  S
Zr784       O785   2.303   1_455  S
Zr784       O786   2.332   1_554  S
Zr784       O798   2.327       .  S
Zr784       O796   2.329   1_554  S
C787        C901   1.445       .  S
C788        C941   1.448       .  S
C789        C922   1.445       .  S
C790        C906   1.451       .  S
C791        C913   1.451       .  S
C792        C934   1.461       .  S
C793        C930   1.458       .  S
C794        C910   1.440       .  S
H795        O796   0.965   1_655  S
H797        O798   0.966       .  S
O799       Zr835   2.428       .  S
O799        C810   1.291       .  A
O800       Zr834   2.431       .  S
O800        C811   1.270       .  A
O801       Zr807   2.402       .  S
O801        C812   1.283       .  A
O802       Zr807   2.436       .  S
O802        C813   1.293       .  A
O803       Zr837   2.372       .  S
O803        C813   1.280       .  A
O804       Zr836   2.431       .  S
O804        C812   1.290       .  A
O805       Zr807   2.418       .  S
O805        C811   1.267       .  A
O806       Zr807   2.388       .  S
O806        C810   1.283       .  A
Zr807       O808   2.297       .  S
Zr807       O809   2.327       .  S
Zr807       O817   2.323       .  S
Zr807       O815   2.362       .  S
O808       Zr834   2.359       .  S
O808       Zr837   2.321       .  S
O809       Zr835   2.279       .  S
O809       Zr836   2.326       .  S
C810        C898   1.442       .  S
C811        C889   1.469       .  S
C812        C894   1.446       .  S
C813        C886   1.451       .  S
H814        O815   0.965       .  S
O815       Zr834   2.364       .  S
O815       Zr836   2.331       .  S
H816        O817   0.966       .  S
O817       Zr835   2.343       .  S
O817       Zr837   2.313       .  S
O818       Zr834   2.424       .  S
O818        C841   1.291       .  A
O819       Zr835   2.404       .  S
O819        C842   1.283       .  A
O820       Zr836   2.416       .  S
O820        C843   1.289       .  A
O821       Zr837   2.393       .  S
O821        C844   1.283       .  A
O822       Zr837   2.418       .  S
O822        C845   1.289       .  A
O823       Zr836   2.403       .  S
O823        C846   1.286       .  A
O824       Zr838   2.358       .  S
O824        C847   1.279       .  A
O825       Zr838   2.431       .  S
O825        C848   1.287       .  A
O826       Zr836   2.446       .  S
O826        C847   1.292       .  A
O827       Zr837   2.392       .  S
O827        C848   1.279       .  A
O828       Zr834   2.449       .  S
O828        C843   1.292       .  A
O829       Zr835   2.430       .  S
O829        C846   1.291       .  A
O830       Zr835   2.400       .  S
O830        C845   1.283       .  A
O831       Zr834   2.424       .  S
O831        C844   1.291       .  A
O832       Zr838   2.392       .  S
O832        C841   1.283       .  A
O833       Zr838   2.424       .  S
O833        C842   1.292       .  A
Zr834       O840   2.330       .  S
Zr834       O852   2.333       .  S
Zr835       O839   2.334       .  S
Zr835       O850   2.344       .  S
Zr836       O840   2.324       .  S
Zr836       O850   2.344       .  S
Zr837       O839   2.301       .  S
Zr837       O852   2.324       .  S
Zr838       O839   2.298       .  S
Zr838       O840   2.350       .  S
Zr838       O852   2.316       .  S
Zr838       O850   2.333       .  S
C841        C882   1.440       .  S
C842        C874   1.452       .  S
C843        C853   1.464       .  S
C844        C862   1.437       .  S
C845        C866   1.439       .  S
C846        C857   1.447       .  S
C847        C870   1.448       .  S
C848        C878   1.451       .  S
H849        O850   0.966       .  S
H851        O852   0.962       .  S
C853        C854   1.349       .  D
C853        H855   1.083       .  S
C854        H856   1.089       .  S
C857        C858   1.345       .  D
C857        H859   1.084       .  S
C858        H860   1.088       .  S
C861        C862   1.344       .  D
C861        H863   1.088       .  S
C862        H864   1.085       .  S
C865        C866   1.348       .  D
C865        H867   1.079       .  S
C866        H868   1.084       .  S
C869        C870   1.351       .  D
C869        H871   1.087       .  S
C870        H872   1.088       .  S
C873        C874   1.345       .  D
C873        H875   1.088       .  S
C874        H876   1.084       .  S
C877        C878   1.347       .  D
C877        H879   1.080       .  S
C878        H880   1.087       .  S
C881        C882   1.342       .  D
C881        H883   1.088       .  S
C882        H884   1.085       .  S
C885        C886   1.354       .  D
C885        H887   1.086       .  S
C886        H888   1.088       .  S
C889        C890   1.342       .  D
C889        H891   1.086       .  S
C890        H892   1.084       .  S
C893        C894   1.345       .  D
C893        H895   1.079       .  S
C894        H896   1.088       .  S
C897        C898   1.339       .  D
C897        H899   1.089       .  S
C898        H900   1.081       .  S
C901        C902   1.349       .  D
C901        H903   1.079       .  S
C902        H904   1.087       .  S
C905        C906   1.351       .  D
C905        H907   1.086       .  S
C906        H908   1.086       .  S
C909        C910   1.345   1_455  D
C909        H911   1.088       .  S
C910        H912   1.085       .  S
C913        C914   1.346       .  D
C913        H915   1.087   1_545  S
C914        H916   1.088       .  S
C917        C918   1.340       .  D
C917        H919   1.090   1_455  S
C918        H920   1.085       .  S
C921        C922   1.359       .  D
C921        H923   1.085       .  S
C922        H924   1.081       .  S
C925        C926   1.348   1_565  D
C925        H927   1.083   1_565  S
C926        H928   1.084       .  S
C929        C930   1.335       .  D
C929        H931   1.089   1_455  S
C930        H932   1.083       .  S
C933        C934   1.343       .  D
C933        H935   1.086       .  S
C934        H936   1.085       .  S
C937        C938   1.341   1_554  D
C937        H939   1.082   1_565  S
C938        H940   1.087       .  S
C941        C942   1.350       .  D
C941        H943   1.088       .  S
C942        H944   1.087       .  S
C945        C946   1.358       .  D
C945        H947   1.082       .  S
C946        H948   1.087   1_556  S
